version 3
run General-0-20241112-10:54:51-2648
attr configname General
attr datetime 20241112-10:54:51
attr datetimef 20241112-105451
attr experiment General
attr inifile omnetpp.ini
attr iterationvars ""
attr iterationvarsd ""
attr iterationvarsf ""
attr measurement ""
attr network Rohan_3
attr processid 2648
attr repetition 0
attr replication #0
attr resultdir results
attr runnumber 0
attr seedset 0
config image-path ../../inet4.5/images
config network Rohan_3
config sim-time-limit 20s
config **.client.numApps 1
config **.client.app[0].typename TcpSessionApp
config **.client.app[0].connectAddress "\"server\""
config **.client.app[0].connectPort 1000
config **.client.app[0].sendBytes 1MB
config **.client1.app[0].typename TcpSessionApp
config **.client1.app[0].connectAddress "\"server\""
config **.client1.app[0].connectPort 1001
config **.client1.app[0].sendBytes 1MB
config **.client2.app[0].typename TcpSessionApp
config **.client2.app[0].connectAddress "\"server\""
config **.client2.app[0].connectPort 1002
config **.client2.app[0].sendBytes 1MB
config **.client3.app[0].typename TcpSessionApp
config **.client3.app[0].connectAddress "\"server\""
config **.client3.app[0].connectPort 1003
config **.client3.app[0].sendBytes 1MB
config **.client4.app[0].typename TcpSessionApp
config **.client4.app[0].connectAddress "\"server\""
config **.client4.app[0].connectPort 1004
config **.client4.app[0].sendBytes 1MB
config **.server.numApps 1
config **.server.app[0].typename TcpEchoApp
config **.server*.app[0].localPort 1000

par Rohan_3.server.ethg$o[0].channel typename "\"inet.node.ethernet.Eth100M\""
par Rohan_3.server.ethg$o[0].channel disabled false
attr mutable ""
par Rohan_3.server.ethg$o[0].channel delay 5e-08s
attr mutable ""
attr unit s
par Rohan_3.server.ethg$o[0].channel datarate 1e+08bps
attr mutable ""
attr unit bps
par Rohan_3.server.ethg$o[0].channel ber 0
attr mutable ""
par Rohan_3.server.ethg$o[0].channel per 0
attr mutable ""
par Rohan_3.server.ethg$o[0].channel length 10m
attr unit m
par Rohan_3.client1.ethg$o[0].channel typename "\"inet.node.ethernet.Eth100M\""
par Rohan_3.client1.ethg$o[0].channel disabled false
attr mutable ""
par Rohan_3.client1.ethg$o[0].channel delay 5e-08s
attr mutable ""
attr unit s
par Rohan_3.client1.ethg$o[0].channel datarate 1e+08bps
attr mutable ""
attr unit bps
par Rohan_3.client1.ethg$o[0].channel ber 0
attr mutable ""
par Rohan_3.client1.ethg$o[0].channel per 0
attr mutable ""
par Rohan_3.client1.ethg$o[0].channel length 10m
attr unit m
par Rohan_3.server.ethg$o[1].channel typename "\"inet.node.ethernet.Eth100M\""
par Rohan_3.server.ethg$o[1].channel disabled false
attr mutable ""
par Rohan_3.server.ethg$o[1].channel delay 5e-08s
attr mutable ""
attr unit s
par Rohan_3.server.ethg$o[1].channel datarate 1e+08bps
attr mutable ""
attr unit bps
par Rohan_3.server.ethg$o[1].channel ber 0
attr mutable ""
par Rohan_3.server.ethg$o[1].channel per 0
attr mutable ""
par Rohan_3.server.ethg$o[1].channel length 10m
attr unit m
par Rohan_3.client2.ethg$o[0].channel typename "\"inet.node.ethernet.Eth100M\""
par Rohan_3.client2.ethg$o[0].channel disabled false
attr mutable ""
par Rohan_3.client2.ethg$o[0].channel delay 5e-08s
attr mutable ""
attr unit s
par Rohan_3.client2.ethg$o[0].channel datarate 1e+08bps
attr mutable ""
attr unit bps
par Rohan_3.client2.ethg$o[0].channel ber 0
attr mutable ""
par Rohan_3.client2.ethg$o[0].channel per 0
attr mutable ""
par Rohan_3.client2.ethg$o[0].channel length 10m
attr unit m
par Rohan_3.server.ethg$o[2].channel typename "\"inet.node.ethernet.Eth100M\""
par Rohan_3.server.ethg$o[2].channel disabled false
attr mutable ""
par Rohan_3.server.ethg$o[2].channel delay 5e-08s
attr mutable ""
attr unit s
par Rohan_3.server.ethg$o[2].channel datarate 1e+08bps
attr mutable ""
attr unit bps
par Rohan_3.server.ethg$o[2].channel ber 0
attr mutable ""
par Rohan_3.server.ethg$o[2].channel per 0
attr mutable ""
par Rohan_3.server.ethg$o[2].channel length 10m
attr unit m
par Rohan_3.client3.ethg$o[0].channel typename "\"inet.node.ethernet.Eth100M\""
par Rohan_3.client3.ethg$o[0].channel disabled false
attr mutable ""
par Rohan_3.client3.ethg$o[0].channel delay 5e-08s
attr mutable ""
attr unit s
par Rohan_3.client3.ethg$o[0].channel datarate 1e+08bps
attr mutable ""
attr unit bps
par Rohan_3.client3.ethg$o[0].channel ber 0
attr mutable ""
par Rohan_3.client3.ethg$o[0].channel per 0
attr mutable ""
par Rohan_3.client3.ethg$o[0].channel length 10m
attr unit m
par Rohan_3.server.ethg$o[3].channel typename "\"inet.node.ethernet.Eth100M\""
par Rohan_3.server.ethg$o[3].channel disabled false
attr mutable ""
par Rohan_3.server.ethg$o[3].channel delay 5e-08s
attr mutable ""
attr unit s
par Rohan_3.server.ethg$o[3].channel datarate 1e+08bps
attr mutable ""
attr unit bps
par Rohan_3.server.ethg$o[3].channel ber 0
attr mutable ""
par Rohan_3.server.ethg$o[3].channel per 0
attr mutable ""
par Rohan_3.server.ethg$o[3].channel length 10m
attr unit m
par Rohan_3.client4.ethg$o[0].channel typename "\"inet.node.ethernet.Eth100M\""
par Rohan_3.client4.ethg$o[0].channel disabled false
attr mutable ""
par Rohan_3.client4.ethg$o[0].channel delay 5e-08s
attr mutable ""
attr unit s
par Rohan_3.client4.ethg$o[0].channel datarate 1e+08bps
attr mutable ""
attr unit bps
par Rohan_3.client4.ethg$o[0].channel ber 0
attr mutable ""
par Rohan_3.client4.ethg$o[0].channel per 0
attr mutable ""
par Rohan_3.client4.ethg$o[0].channel length 10m
attr unit m
par Rohan_3.server.ethg$o[4].channel typename "\"inet.node.ethernet.Eth100M\""
par Rohan_3.server.ethg$o[4].channel disabled false
attr mutable ""
par Rohan_3.server.ethg$o[4].channel delay 5e-08s
attr mutable ""
attr unit s
par Rohan_3.server.ethg$o[4].channel datarate 1e+08bps
attr mutable ""
attr unit bps
par Rohan_3.server.ethg$o[4].channel ber 0
attr mutable ""
par Rohan_3.server.ethg$o[4].channel per 0
attr mutable ""
par Rohan_3.server.ethg$o[4].channel length 10m
attr unit m
par Rohan_3.client5.ethg$o[0].channel typename "\"inet.node.ethernet.Eth100M\""
par Rohan_3.client5.ethg$o[0].channel disabled false
attr mutable ""
par Rohan_3.client5.ethg$o[0].channel delay 5e-08s
attr mutable ""
attr unit s
par Rohan_3.client5.ethg$o[0].channel datarate 1e+08bps
attr mutable ""
attr unit bps
par Rohan_3.client5.ethg$o[0].channel ber 0
attr mutable ""
par Rohan_3.client5.ethg$o[0].channel per 0
attr mutable ""
par Rohan_3.client5.ethg$o[0].channel length 10m
attr unit m
par Rohan_3.server.ethg$i[0].channel typename "\"ned.IdealChannel\""
par Rohan_3.server.eth[0].phys$o.channel typename "\"ned.IdealChannel\""
par Rohan_3.server.ethg$i[1].channel typename "\"ned.IdealChannel\""
par Rohan_3.server.eth[1].phys$o.channel typename "\"ned.IdealChannel\""
par Rohan_3.server.ethg$i[2].channel typename "\"ned.IdealChannel\""
par Rohan_3.server.eth[2].phys$o.channel typename "\"ned.IdealChannel\""
par Rohan_3.server.ethg$i[3].channel typename "\"ned.IdealChannel\""
par Rohan_3.server.eth[3].phys$o.channel typename "\"ned.IdealChannel\""
par Rohan_3.server.ethg$i[4].channel typename "\"ned.IdealChannel\""
par Rohan_3.server.eth[4].phys$o.channel typename "\"ned.IdealChannel\""
par Rohan_3.server.interfaceTable typename "\"inet.networklayer.common.InterfaceTable\""
par Rohan_3.server.interfaceTable displayAddresses false
par Rohan_3.server.cb typename "\"inet.common.MessageDispatcher\""
par Rohan_3.server.cb displayStringTextFormat "\"processed %p pk (%l)\""
par Rohan_3.server.cb forwardServiceRegistration true
par Rohan_3.server.cb forwardProtocolRegistration true
par Rohan_3.server.bl typename "\"inet.common.MessageDispatcher\""
par Rohan_3.server.bl displayStringTextFormat "\"processed %p pk (%l)\""
par Rohan_3.server.bl forwardServiceRegistration true
par Rohan_3.server.bl forwardProtocolRegistration true
par Rohan_3.server.ethernet typename "\"inet.linklayer.ethernet.basic.EthernetEncapsulation\""
par Rohan_3.server.ethernet registerProtocol true
par Rohan_3.server.ethernet interfaceTableModule "\"Rohan_3.server.interfaceTable\""
par Rohan_3.server.ethernet fcsMode "\"declared\""
attr enum declared,computed
par Rohan_3.server.ethernet stopOperationExtraTime -1s
attr unit s
par Rohan_3.server.ethernet stopOperationTimeout 2s
attr unit s
scalar Rohan_3.server.ethernet decapPk:count 0
attr interpolationmode none
attr recordingmode count
attr source decapPk
attr title "packets decapsulated, count"
scalar Rohan_3.server.ethernet decapPk:sum(packetBytes) 0
attr interpolationmode none
attr recordingmode sum(packetBytes)
attr source decapPk
attr title "packets decapsulated, sum(packetBytes)"
scalar Rohan_3.server.ethernet encapPk:count 0
attr interpolationmode none
attr recordingmode count
attr source encapPk
attr title "packets encapsulated, count"
scalar Rohan_3.server.ethernet encapPk:sum(packetBytes) 0
attr interpolationmode none
attr recordingmode sum(packetBytes)
attr source encapPk
attr title "packets encapsulated, sum(packetBytes)"
scalar Rohan_3.server.ethernet pauseSent:count 0
attr recordingmode count
attr title "pause sent, count"
scalar Rohan_3.server.ethernet pauseSent:sum 0
attr recordingmode sum
attr title "pause sent, sum"
par Rohan_3.server.li typename "\"inet.common.MessageDispatcher\""
par Rohan_3.server.li displayStringTextFormat "\"processed %p pk (%l)\""
par Rohan_3.server.li forwardServiceRegistration true
par Rohan_3.server.li forwardProtocolRegistration true
par Rohan_3.server.lo[0].upperLayerIn.channel typename "\"ned.IdealChannel\""
par Rohan_3.server.lo[0].lo.upperLayerOut.channel typename "\"ned.IdealChannel\""
par Rohan_3.server.lo[0].lo typename "\"inet.linklayer.loopback.Loopback\""
par Rohan_3.server.lo[0].lo interfaceTableModule "\"Rohan_3.server.interfaceTable\""
par Rohan_3.server.lo[0].lo mtu 4470B
attr unit B
scalar Rohan_3.server.lo[0].lo rcvdPkFromHl:count 0
attr interpolationmode none
attr recordingmode count
attr source packetReceivedFromUpper
attr title "packets received from higher layer, count"
scalar Rohan_3.server.lo[0].lo rcvdPkFromHl:sum(packetBytes) 0
attr interpolationmode none
attr recordingmode sum(packetBytes)
attr source packetReceivedFromUpper
attr title "packets received from higher layer, sum(packetBytes)"
scalar Rohan_3.server.lo[0].lo passedUpPk:count 0
attr interpolationmode none
attr recordingmode count
attr source packetSentToUpper
attr title "packets passed to higher layer, count"
scalar Rohan_3.server.lo[0].lo passedUpPk:sum(packetBytes) 0
attr interpolationmode none
attr recordingmode sum(packetBytes)
attr source packetSentToUpper
attr title "packets passed to higher layer, sum(packetBytes)"
par Rohan_3.server.lo[0] typename "\"inet.linklayer.loopback.LoopbackInterface\""
par Rohan_3.server.lo[0] displayStringTextFormat "\"%a (%i)\\n%m\""
par Rohan_3.server.lo[0] recordPcap false
par Rohan_3.server.lo[0] numPcapRecorders 0
par Rohan_3.server.lo[0] interfaceTableModule "\"Rohan_3.server.interfaceTable\""
scalar Rohan_3.server.lo[0] packetDropInterfaceDown:count 0
attr interpolationmode none
attr recordingmode count
attr source packetDropReasonIsInterfaceDown(packetDropped)
attr title "packet drops: interface down, count"
scalar Rohan_3.server.lo[0] packetDropInterfaceDown:sum(packetBytes) 0
attr interpolationmode none
attr recordingmode sum(packetBytes)
attr source packetDropReasonIsInterfaceDown(packetDropped)
attr title "packet drops: interface down, sum(packetBytes)"
scalar Rohan_3.server.lo[0] packetDropNoCarrier:count 0
attr interpolationmode none
attr recordingmode count
attr source packetDropReasonIsNoCarrier(packetDropped)
attr title "packet drops: no carrier, count"
scalar Rohan_3.server.lo[0] packetDropNoCarrier:sum(packetBytes) 0
attr interpolationmode none
attr recordingmode sum(packetBytes)
attr source packetDropReasonIsNoCarrier(packetDropped)
attr title "packet drops: no carrier, sum(packetBytes)"
par Rohan_3.server.eth[0].mac.phys$o.channel typename "\"ned.IdealChannel\""
par Rohan_3.server.eth[0].phys$i.channel typename "\"ned.IdealChannel\""
par Rohan_3.server.eth[0].upperLayerIn.channel typename "\"ned.IdealChannel\""
par Rohan_3.server.eth[0].mac.upperLayerOut.channel typename "\"ned.IdealChannel\""
par Rohan_3.server.eth[0].queue typename "\"inet.linklayer.ethernet.common.EthernetQueue\""
par Rohan_3.server.eth[0].queue displayStringTextFormat "\"contains %p pk (%l) pushed %u\\npulled %o removed %r dropped %d\""
par Rohan_3.server.eth[0].queue packetCapacity 1000
par Rohan_3.server.eth[0].queue dataCapacity -1b
attr unit b
par Rohan_3.server.eth[0].queue dropperClass "\"inet::queueing::PacketAtCollectionEndDropper\""
par Rohan_3.server.eth[0].queue comparatorClass "\"inet::EthernetFrameTypeComparator\""
par Rohan_3.server.eth[0].queue bufferModule "\"\""
scalar Rohan_3.server.eth[0].queue queueLength:last 0
attr autoWarmupFilter false
attr interpolationmode sample-hold
attr recordingmode last
attr source "warmup(atomic(constant0(packetPushEnded) + count(packetPushStarted) - count(packetPulled) - count(packetRemoved) - count(packetDropped)))"
attr title "queue length, last"
attr unit pk
scalar Rohan_3.server.eth[0].queue queueLength:max 0
attr autoWarmupFilter false
attr interpolationmode sample-hold
attr recordingmode max
attr source "warmup(atomic(constant0(packetPushEnded) + count(packetPushStarted) - count(packetPulled) - count(packetRemoved) - count(packetDropped)))"
attr title "queue length, max"
attr unit pk
scalar Rohan_3.server.eth[0].queue queueLength:timeavg 0
attr autoWarmupFilter false
attr interpolationmode sample-hold
attr recordingmode timeavg
attr source "warmup(atomic(constant0(packetPushEnded) + count(packetPushStarted) - count(packetPulled) - count(packetRemoved) - count(packetDropped)))"
attr title "queue length, timeavg"
attr unit pk
scalar Rohan_3.server.eth[0].queue queueBitLength:last 0
attr autoWarmupFilter false
attr interpolationmode sample-hold
attr recordingmode last
attr source "warmup(atomic(constant0(packetPushEnded) + sum(packetLength(packetPushStarted)) - sum(packetLength(packetPulled)) - sum(packetLength(packetRemoved)) - sum(packetLength(packetDropped))))"
attr title "queue bit length, last"
attr unit b
scalar Rohan_3.server.eth[0].queue queueBitLength:max 0
attr autoWarmupFilter false
attr interpolationmode sample-hold
attr recordingmode max
attr source "warmup(atomic(constant0(packetPushEnded) + sum(packetLength(packetPushStarted)) - sum(packetLength(packetPulled)) - sum(packetLength(packetRemoved)) - sum(packetLength(packetDropped))))"
attr title "queue bit length, max"
attr unit b
scalar Rohan_3.server.eth[0].queue queueBitLength:timeavg 0
attr autoWarmupFilter false
attr interpolationmode sample-hold
attr recordingmode timeavg
attr source "warmup(atomic(constant0(packetPushEnded) + sum(packetLength(packetPushStarted)) - sum(packetLength(packetPulled)) - sum(packetLength(packetRemoved)) - sum(packetLength(packetDropped))))"
attr title "queue bit length, timeavg"
attr unit b
statistic Rohan_3.server.eth[0].queue queueingTime:histogram
field count 0
field mean nan
field stddev nan
field min nan
field max nan
field sum 0
field sqrsum 0
attr interpolationmode none
attr recordingmode histogram
attr source queueingTime(packetPulled)
attr title "queueing times"
attr unit s
bin	-inf	0
bin	0	0
bin	1	0
scalar Rohan_3.server.eth[0].queue outgoingPackets:count 0
attr recordingmode count
attr source packetPulled
attr title "outgoing packets, count"
attr unit pk
scalar Rohan_3.server.eth[0].queue outgoingPacketLengths:sum 0
attr interpolationmode none
attr recordingmode sum
attr source packetLength(packetPulled)
attr title "outgoing packet lengths, sum"
attr unit b
statistic Rohan_3.server.eth[0].queue outgoingPacketLengths:histogram
field count 0
field mean nan
field stddev nan
field min nan
field max nan
field sum 0
field sqrsum 0
attr interpolationmode none
attr recordingmode histogram
attr source packetLength(packetPulled)
attr title "outgoing packet lengths"
attr unit b
bin	-inf	0
bin	0	0
bin	1	0
statistic Rohan_3.server.eth[0].queue flowQueueingTime:histogram
field count 0
field mean nan
field stddev nan
field min nan
field max nan
field sum 0
field sqrsum 0
attr interpolationmode none
attr recordingmode histogram
attr source queueingTime(demuxFlow(packetPulled))
attr title "flow queueing times"
attr unit s
bin	-inf	0
bin	0	0
bin	1	0
scalar Rohan_3.server.eth[0].queue incomingPackets:count 0
attr recordingmode count
attr source packetPushStarted
attr title "incoming packets, count"
attr unit pk
scalar Rohan_3.server.eth[0].queue incomingPacketLengths:sum 0
attr interpolationmode none
attr recordingmode sum
attr source packetLength(packetPushStarted)
attr title "incoming packet lengths, sum"
attr unit b
statistic Rohan_3.server.eth[0].queue incomingPacketLengths:histogram
field count 0
field mean nan
field stddev nan
field min nan
field max nan
field sum 0
field sqrsum 0
attr interpolationmode none
attr recordingmode histogram
attr source packetLength(packetPushStarted)
attr title "incoming packet lengths"
attr unit b
bin	-inf	0
bin	0	0
bin	1	0
scalar Rohan_3.server.eth[0].queue droppedPacketsQueueOverflow:count 0
attr interpolationmode none
attr recordingmode count
attr source packetDropReasonIsQueueOverflow(packetDropped)
attr title "dropped packets: queue overflow, count"
attr unit pk
scalar Rohan_3.server.eth[0].queue droppedPacketLengthsQueueOverflow:sum 0
attr interpolationmode none
attr recordingmode sum
attr source packetLength(packetDropReasonIsQueueOverflow(packetDropped))
attr title "dropped packet lengths: queue overflow, sum"
attr unit b
par Rohan_3.server.eth[0].mac typename "\"inet.linklayer.ethernet.basic.EthernetMac\""
par Rohan_3.server.eth[0].mac interfaceTableModule "\"Rohan_3.server.interfaceTable\""
par Rohan_3.server.eth[0].mac displayStringTextFormat "\"rate: %b\\nsent: %s, rcvd: %r\\nqueue: %q, drop: %d\""
par Rohan_3.server.eth[0].mac sendRawBytes false
par Rohan_3.server.eth[0].mac promiscuous false
par Rohan_3.server.eth[0].mac duplexMode true
par Rohan_3.server.eth[0].mac mtu 1500B
attr unit B
par Rohan_3.server.eth[0].mac fcsMode "\"declared\""
attr enum declared,computed
par Rohan_3.server.eth[0].mac stopOperationExtraTime -1s
attr unit s
par Rohan_3.server.eth[0].mac stopOperationTimeout 2s
attr unit s
scalar Rohan_3.server.eth[0].mac "simulated time" 20
scalar Rohan_3.server.eth[0].mac full-duplex 1
scalar Rohan_3.server.eth[0].mac "frames/sec sent" 0
scalar Rohan_3.server.eth[0].mac "frames/sec rcvd" 0
scalar Rohan_3.server.eth[0].mac "bits/sec sent" 0
scalar Rohan_3.server.eth[0].mac "bits/sec rcvd" 0
scalar Rohan_3.server.eth[0].mac "rx channel idle (%)" 100
scalar Rohan_3.server.eth[0].mac "rx channel utilization (%)" 0
scalar Rohan_3.server.eth[0].mac txPk:count 0
attr interpolationmode none
attr recordingmode count
attr source packetSentToLower
attr title "packets transmitted, count"
scalar Rohan_3.server.eth[0].mac txPk:sum(packetBytes) 0
attr interpolationmode none
attr recordingmode sum(packetBytes)
attr source packetSentToLower
attr title "packets transmitted, sum(packetBytes)"
scalar Rohan_3.server.eth[0].mac packetReceivedFromUpper:count 0
attr interpolationmode none
attr recordingmode count
attr source packetReceivedFromUpper
attr title "packet bytes from higher layer, count"
scalar Rohan_3.server.eth[0].mac packetReceivedFromUpper:sum(packetBytes) 0
attr interpolationmode none
attr recordingmode sum(packetBytes)
attr source packetReceivedFromUpper
attr title "packet bytes from higher layer, sum(packetBytes)"
scalar Rohan_3.server.eth[0].mac passedUpPk:count 0
attr interpolationmode none
attr recordingmode count
attr source packetSentToUpper
attr title "packets passed to higher layer, count"
scalar Rohan_3.server.eth[0].mac passedUpPk:sum(packetBytes) 0
attr interpolationmode none
attr recordingmode sum(packetBytes)
attr source packetSentToUpper
attr title "packets passed to higher layer, sum(packetBytes)"
scalar Rohan_3.server.eth[0].mac packetDropIncorrectlyReceived:count 0
attr interpolationmode none
attr recordingmode count
attr source packetDropReasonIsIncorrectlyReceived(packetDropped)
attr title "packet drop: incorrectly received, count"
scalar Rohan_3.server.eth[0].mac packetDropIncorrectlyReceived:sum(packetBytes) 0
attr interpolationmode none
attr recordingmode sum(packetBytes)
attr source packetDropReasonIsIncorrectlyReceived(packetDropped)
attr title "packet drop: incorrectly received, sum(packetBytes)"
scalar Rohan_3.server.eth[0].mac packetDropInterfaceDown:count 0
attr interpolationmode none
attr recordingmode count
attr source packetDropReasonIsInterfaceDown(packetDropped)
attr title "packet drop: interface down, count"
scalar Rohan_3.server.eth[0].mac packetDropInterfaceDown:sum(packetBytes) 0
attr interpolationmode none
attr recordingmode sum(packetBytes)
attr source packetDropReasonIsInterfaceDown(packetDropped)
attr title "packet drop: interface down, sum(packetBytes)"
scalar Rohan_3.server.eth[0].mac packetDropNotAddressedToUs:count 0
attr interpolationmode none
attr recordingmode count
attr source packetDropReasonIsNotAddressedToUs(packetDropped)
attr title "packet drop: not addressed to us, count"
scalar Rohan_3.server.eth[0].mac packetDropNotAddressedToUs:sum(packetBytes) 0
attr interpolationmode none
attr recordingmode sum(packetBytes)
attr source packetDropReasonIsNotAddressedToUs(packetDropped)
attr title "packet drop: not addressed to us, sum(packetBytes)"
scalar Rohan_3.server.eth[0].mac rxPausePkUnits:count 0
attr interpolationmode none
attr recordingmode count
attr title "pause units received, count"
scalar Rohan_3.server.eth[0].mac rxPausePkUnits:sum 0
attr interpolationmode none
attr recordingmode sum
attr title "pause units received, sum"
scalar Rohan_3.server.eth[0].mac txPausePkUnits:count 0
attr interpolationmode none
attr recordingmode count
attr title "pause units sent, count"
scalar Rohan_3.server.eth[0].mac txPausePkUnits:sum 0
attr interpolationmode none
attr recordingmode sum
attr title "pause units sent, sum"
scalar Rohan_3.server.eth[0].mac rxPkOk:count 0
attr interpolationmode none
attr recordingmode count
attr source rxPkOk
attr title "packets received OK, count"
scalar Rohan_3.server.eth[0].mac rxPkOk:sum(packetBytes) 0
attr interpolationmode none
attr recordingmode sum(packetBytes)
attr source rxPkOk
attr title "packets received OK, sum(packetBytes)"
par Rohan_3.server.eth[0] typename "\"inet.linklayer.ethernet.EthernetInterface\""
par Rohan_3.server.eth[0] displayStringTextFormat "\"%a (%i)\\n%m\""
par Rohan_3.server.eth[0] recordPcap false
par Rohan_3.server.eth[0] numPcapRecorders 0
par Rohan_3.server.eth[0] interfaceTableModule "\"Rohan_3.server.interfaceTable\""
par Rohan_3.server.eth[0] protocol "\"ethernetmac\""
par Rohan_3.server.eth[0] address "\"0A-AA-00-00-00-01\""
attr mutable ""
par Rohan_3.server.eth[0] duplexMode true
par Rohan_3.server.eth[0] csmacdSupport false
par Rohan_3.server.eth[0] bitrate 0bps
attr unit bps
par Rohan_3.server.eth[0] fcsMode "\"declared\""
attr enum declared,computed
scalar Rohan_3.server.eth[0] packetDropInterfaceDown:count 0
attr interpolationmode none
attr recordingmode count
attr source packetDropReasonIsInterfaceDown(packetDropped)
attr title "packet drops: interface down, count"
scalar Rohan_3.server.eth[0] packetDropInterfaceDown:sum(packetBytes) 0
attr interpolationmode none
attr recordingmode sum(packetBytes)
attr source packetDropReasonIsInterfaceDown(packetDropped)
attr title "packet drops: interface down, sum(packetBytes)"
scalar Rohan_3.server.eth[0] packetDropNoCarrier:count 0
attr interpolationmode none
attr recordingmode count
attr source packetDropReasonIsNoCarrier(packetDropped)
attr title "packet drops: no carrier, count"
scalar Rohan_3.server.eth[0] packetDropNoCarrier:sum(packetBytes) 0
attr interpolationmode none
attr recordingmode sum(packetBytes)
attr source packetDropReasonIsNoCarrier(packetDropped)
attr title "packet drops: no carrier, sum(packetBytes)"
par Rohan_3.server.eth[1].mac.phys$o.channel typename "\"ned.IdealChannel\""
par Rohan_3.server.eth[1].phys$i.channel typename "\"ned.IdealChannel\""
par Rohan_3.server.eth[1].upperLayerIn.channel typename "\"ned.IdealChannel\""
par Rohan_3.server.eth[1].mac.upperLayerOut.channel typename "\"ned.IdealChannel\""
par Rohan_3.server.eth[1].queue typename "\"inet.linklayer.ethernet.common.EthernetQueue\""
par Rohan_3.server.eth[1].queue displayStringTextFormat "\"contains %p pk (%l) pushed %u\\npulled %o removed %r dropped %d\""
par Rohan_3.server.eth[1].queue packetCapacity 1000
par Rohan_3.server.eth[1].queue dataCapacity -1b
attr unit b
par Rohan_3.server.eth[1].queue dropperClass "\"inet::queueing::PacketAtCollectionEndDropper\""
par Rohan_3.server.eth[1].queue comparatorClass "\"inet::EthernetFrameTypeComparator\""
par Rohan_3.server.eth[1].queue bufferModule "\"\""
scalar Rohan_3.server.eth[1].queue queueLength:last 0
attr autoWarmupFilter false
attr interpolationmode sample-hold
attr recordingmode last
attr source "warmup(atomic(constant0(packetPushEnded) + count(packetPushStarted) - count(packetPulled) - count(packetRemoved) - count(packetDropped)))"
attr title "queue length, last"
attr unit pk
scalar Rohan_3.server.eth[1].queue queueLength:max 0
attr autoWarmupFilter false
attr interpolationmode sample-hold
attr recordingmode max
attr source "warmup(atomic(constant0(packetPushEnded) + count(packetPushStarted) - count(packetPulled) - count(packetRemoved) - count(packetDropped)))"
attr title "queue length, max"
attr unit pk
scalar Rohan_3.server.eth[1].queue queueLength:timeavg 0
attr autoWarmupFilter false
attr interpolationmode sample-hold
attr recordingmode timeavg
attr source "warmup(atomic(constant0(packetPushEnded) + count(packetPushStarted) - count(packetPulled) - count(packetRemoved) - count(packetDropped)))"
attr title "queue length, timeavg"
attr unit pk
scalar Rohan_3.server.eth[1].queue queueBitLength:last 0
attr autoWarmupFilter false
attr interpolationmode sample-hold
attr recordingmode last
attr source "warmup(atomic(constant0(packetPushEnded) + sum(packetLength(packetPushStarted)) - sum(packetLength(packetPulled)) - sum(packetLength(packetRemoved)) - sum(packetLength(packetDropped))))"
attr title "queue bit length, last"
attr unit b
scalar Rohan_3.server.eth[1].queue queueBitLength:max 0
attr autoWarmupFilter false
attr interpolationmode sample-hold
attr recordingmode max
attr source "warmup(atomic(constant0(packetPushEnded) + sum(packetLength(packetPushStarted)) - sum(packetLength(packetPulled)) - sum(packetLength(packetRemoved)) - sum(packetLength(packetDropped))))"
attr title "queue bit length, max"
attr unit b
scalar Rohan_3.server.eth[1].queue queueBitLength:timeavg 0
attr autoWarmupFilter false
attr interpolationmode sample-hold
attr recordingmode timeavg
attr source "warmup(atomic(constant0(packetPushEnded) + sum(packetLength(packetPushStarted)) - sum(packetLength(packetPulled)) - sum(packetLength(packetRemoved)) - sum(packetLength(packetDropped))))"
attr title "queue bit length, timeavg"
attr unit b
statistic Rohan_3.server.eth[1].queue queueingTime:histogram
field count 0
field mean nan
field stddev nan
field min nan
field max nan
field sum 0
field sqrsum 0
attr interpolationmode none
attr recordingmode histogram
attr source queueingTime(packetPulled)
attr title "queueing times"
attr unit s
bin	-inf	0
bin	0	0
bin	1	0
scalar Rohan_3.server.eth[1].queue outgoingPackets:count 0
attr recordingmode count
attr source packetPulled
attr title "outgoing packets, count"
attr unit pk
scalar Rohan_3.server.eth[1].queue outgoingPacketLengths:sum 0
attr interpolationmode none
attr recordingmode sum
attr source packetLength(packetPulled)
attr title "outgoing packet lengths, sum"
attr unit b
statistic Rohan_3.server.eth[1].queue outgoingPacketLengths:histogram
field count 0
field mean nan
field stddev nan
field min nan
field max nan
field sum 0
field sqrsum 0
attr interpolationmode none
attr recordingmode histogram
attr source packetLength(packetPulled)
attr title "outgoing packet lengths"
attr unit b
bin	-inf	0
bin	0	0
bin	1	0
statistic Rohan_3.server.eth[1].queue flowQueueingTime:histogram
field count 0
field mean nan
field stddev nan
field min nan
field max nan
field sum 0
field sqrsum 0
attr interpolationmode none
attr recordingmode histogram
attr source queueingTime(demuxFlow(packetPulled))
attr title "flow queueing times"
attr unit s
bin	-inf	0
bin	0	0
bin	1	0
scalar Rohan_3.server.eth[1].queue incomingPackets:count 0
attr recordingmode count
attr source packetPushStarted
attr title "incoming packets, count"
attr unit pk
scalar Rohan_3.server.eth[1].queue incomingPacketLengths:sum 0
attr interpolationmode none
attr recordingmode sum
attr source packetLength(packetPushStarted)
attr title "incoming packet lengths, sum"
attr unit b
statistic Rohan_3.server.eth[1].queue incomingPacketLengths:histogram
field count 0
field mean nan
field stddev nan
field min nan
field max nan
field sum 0
field sqrsum 0
attr interpolationmode none
attr recordingmode histogram
attr source packetLength(packetPushStarted)
attr title "incoming packet lengths"
attr unit b
bin	-inf	0
bin	0	0
bin	1	0
scalar Rohan_3.server.eth[1].queue droppedPacketsQueueOverflow:count 0
attr interpolationmode none
attr recordingmode count
attr source packetDropReasonIsQueueOverflow(packetDropped)
attr title "dropped packets: queue overflow, count"
attr unit pk
scalar Rohan_3.server.eth[1].queue droppedPacketLengthsQueueOverflow:sum 0
attr interpolationmode none
attr recordingmode sum
attr source packetLength(packetDropReasonIsQueueOverflow(packetDropped))
attr title "dropped packet lengths: queue overflow, sum"
attr unit b
par Rohan_3.server.eth[1].mac typename "\"inet.linklayer.ethernet.basic.EthernetMac\""
par Rohan_3.server.eth[1].mac interfaceTableModule "\"Rohan_3.server.interfaceTable\""
par Rohan_3.server.eth[1].mac displayStringTextFormat "\"rate: %b\\nsent: %s, rcvd: %r\\nqueue: %q, drop: %d\""
par Rohan_3.server.eth[1].mac sendRawBytes false
par Rohan_3.server.eth[1].mac promiscuous false
par Rohan_3.server.eth[1].mac duplexMode true
par Rohan_3.server.eth[1].mac mtu 1500B
attr unit B
par Rohan_3.server.eth[1].mac fcsMode "\"declared\""
attr enum declared,computed
par Rohan_3.server.eth[1].mac stopOperationExtraTime -1s
attr unit s
par Rohan_3.server.eth[1].mac stopOperationTimeout 2s
attr unit s
scalar Rohan_3.server.eth[1].mac "simulated time" 20
scalar Rohan_3.server.eth[1].mac full-duplex 1
scalar Rohan_3.server.eth[1].mac "frames/sec sent" 0
scalar Rohan_3.server.eth[1].mac "frames/sec rcvd" 0
scalar Rohan_3.server.eth[1].mac "bits/sec sent" 0
scalar Rohan_3.server.eth[1].mac "bits/sec rcvd" 0
scalar Rohan_3.server.eth[1].mac "rx channel idle (%)" 100
scalar Rohan_3.server.eth[1].mac "rx channel utilization (%)" 0
scalar Rohan_3.server.eth[1].mac txPk:count 0
attr interpolationmode none
attr recordingmode count
attr source packetSentToLower
attr title "packets transmitted, count"
scalar Rohan_3.server.eth[1].mac txPk:sum(packetBytes) 0
attr interpolationmode none
attr recordingmode sum(packetBytes)
attr source packetSentToLower
attr title "packets transmitted, sum(packetBytes)"
scalar Rohan_3.server.eth[1].mac packetReceivedFromUpper:count 0
attr interpolationmode none
attr recordingmode count
attr source packetReceivedFromUpper
attr title "packet bytes from higher layer, count"
scalar Rohan_3.server.eth[1].mac packetReceivedFromUpper:sum(packetBytes) 0
attr interpolationmode none
attr recordingmode sum(packetBytes)
attr source packetReceivedFromUpper
attr title "packet bytes from higher layer, sum(packetBytes)"
scalar Rohan_3.server.eth[1].mac passedUpPk:count 0
attr interpolationmode none
attr recordingmode count
attr source packetSentToUpper
attr title "packets passed to higher layer, count"
scalar Rohan_3.server.eth[1].mac passedUpPk:sum(packetBytes) 0
attr interpolationmode none
attr recordingmode sum(packetBytes)
attr source packetSentToUpper
attr title "packets passed to higher layer, sum(packetBytes)"
scalar Rohan_3.server.eth[1].mac packetDropIncorrectlyReceived:count 0
attr interpolationmode none
attr recordingmode count
attr source packetDropReasonIsIncorrectlyReceived(packetDropped)
attr title "packet drop: incorrectly received, count"
scalar Rohan_3.server.eth[1].mac packetDropIncorrectlyReceived:sum(packetBytes) 0
attr interpolationmode none
attr recordingmode sum(packetBytes)
attr source packetDropReasonIsIncorrectlyReceived(packetDropped)
attr title "packet drop: incorrectly received, sum(packetBytes)"
scalar Rohan_3.server.eth[1].mac packetDropInterfaceDown:count 0
attr interpolationmode none
attr recordingmode count
attr source packetDropReasonIsInterfaceDown(packetDropped)
attr title "packet drop: interface down, count"
scalar Rohan_3.server.eth[1].mac packetDropInterfaceDown:sum(packetBytes) 0
attr interpolationmode none
attr recordingmode sum(packetBytes)
attr source packetDropReasonIsInterfaceDown(packetDropped)
attr title "packet drop: interface down, sum(packetBytes)"
scalar Rohan_3.server.eth[1].mac packetDropNotAddressedToUs:count 0
attr interpolationmode none
attr recordingmode count
attr source packetDropReasonIsNotAddressedToUs(packetDropped)
attr title "packet drop: not addressed to us, count"
scalar Rohan_3.server.eth[1].mac packetDropNotAddressedToUs:sum(packetBytes) 0
attr interpolationmode none
attr recordingmode sum(packetBytes)
attr source packetDropReasonIsNotAddressedToUs(packetDropped)
attr title "packet drop: not addressed to us, sum(packetBytes)"
scalar Rohan_3.server.eth[1].mac rxPausePkUnits:count 0
attr interpolationmode none
attr recordingmode count
attr title "pause units received, count"
scalar Rohan_3.server.eth[1].mac rxPausePkUnits:sum 0
attr interpolationmode none
attr recordingmode sum
attr title "pause units received, sum"
scalar Rohan_3.server.eth[1].mac txPausePkUnits:count 0
attr interpolationmode none
attr recordingmode count
attr title "pause units sent, count"
scalar Rohan_3.server.eth[1].mac txPausePkUnits:sum 0
attr interpolationmode none
attr recordingmode sum
attr title "pause units sent, sum"
scalar Rohan_3.server.eth[1].mac rxPkOk:count 0
attr interpolationmode none
attr recordingmode count
attr source rxPkOk
attr title "packets received OK, count"
scalar Rohan_3.server.eth[1].mac rxPkOk:sum(packetBytes) 0
attr interpolationmode none
attr recordingmode sum(packetBytes)
attr source rxPkOk
attr title "packets received OK, sum(packetBytes)"
par Rohan_3.server.eth[1] typename "\"inet.linklayer.ethernet.EthernetInterface\""
par Rohan_3.server.eth[1] displayStringTextFormat "\"%a (%i)\\n%m\""
par Rohan_3.server.eth[1] recordPcap false
par Rohan_3.server.eth[1] numPcapRecorders 0
par Rohan_3.server.eth[1] interfaceTableModule "\"Rohan_3.server.interfaceTable\""
par Rohan_3.server.eth[1] protocol "\"ethernetmac\""
par Rohan_3.server.eth[1] address "\"0A-AA-00-00-00-02\""
attr mutable ""
par Rohan_3.server.eth[1] duplexMode true
par Rohan_3.server.eth[1] csmacdSupport false
par Rohan_3.server.eth[1] bitrate 0bps
attr unit bps
par Rohan_3.server.eth[1] fcsMode "\"declared\""
attr enum declared,computed
scalar Rohan_3.server.eth[1] packetDropInterfaceDown:count 0
attr interpolationmode none
attr recordingmode count
attr source packetDropReasonIsInterfaceDown(packetDropped)
attr title "packet drops: interface down, count"
scalar Rohan_3.server.eth[1] packetDropInterfaceDown:sum(packetBytes) 0
attr interpolationmode none
attr recordingmode sum(packetBytes)
attr source packetDropReasonIsInterfaceDown(packetDropped)
attr title "packet drops: interface down, sum(packetBytes)"
scalar Rohan_3.server.eth[1] packetDropNoCarrier:count 0
attr interpolationmode none
attr recordingmode count
attr source packetDropReasonIsNoCarrier(packetDropped)
attr title "packet drops: no carrier, count"
scalar Rohan_3.server.eth[1] packetDropNoCarrier:sum(packetBytes) 0
attr interpolationmode none
attr recordingmode sum(packetBytes)
attr source packetDropReasonIsNoCarrier(packetDropped)
attr title "packet drops: no carrier, sum(packetBytes)"
par Rohan_3.server.eth[2].mac.phys$o.channel typename "\"ned.IdealChannel\""
par Rohan_3.server.eth[2].phys$i.channel typename "\"ned.IdealChannel\""
par Rohan_3.server.eth[2].upperLayerIn.channel typename "\"ned.IdealChannel\""
par Rohan_3.server.eth[2].mac.upperLayerOut.channel typename "\"ned.IdealChannel\""
par Rohan_3.server.eth[2].queue typename "\"inet.linklayer.ethernet.common.EthernetQueue\""
par Rohan_3.server.eth[2].queue displayStringTextFormat "\"contains %p pk (%l) pushed %u\\npulled %o removed %r dropped %d\""
par Rohan_3.server.eth[2].queue packetCapacity 1000
par Rohan_3.server.eth[2].queue dataCapacity -1b
attr unit b
par Rohan_3.server.eth[2].queue dropperClass "\"inet::queueing::PacketAtCollectionEndDropper\""
par Rohan_3.server.eth[2].queue comparatorClass "\"inet::EthernetFrameTypeComparator\""
par Rohan_3.server.eth[2].queue bufferModule "\"\""
scalar Rohan_3.server.eth[2].queue queueLength:last 0
attr autoWarmupFilter false
attr interpolationmode sample-hold
attr recordingmode last
attr source "warmup(atomic(constant0(packetPushEnded) + count(packetPushStarted) - count(packetPulled) - count(packetRemoved) - count(packetDropped)))"
attr title "queue length, last"
attr unit pk
scalar Rohan_3.server.eth[2].queue queueLength:max 0
attr autoWarmupFilter false
attr interpolationmode sample-hold
attr recordingmode max
attr source "warmup(atomic(constant0(packetPushEnded) + count(packetPushStarted) - count(packetPulled) - count(packetRemoved) - count(packetDropped)))"
attr title "queue length, max"
attr unit pk
scalar Rohan_3.server.eth[2].queue queueLength:timeavg 0
attr autoWarmupFilter false
attr interpolationmode sample-hold
attr recordingmode timeavg
attr source "warmup(atomic(constant0(packetPushEnded) + count(packetPushStarted) - count(packetPulled) - count(packetRemoved) - count(packetDropped)))"
attr title "queue length, timeavg"
attr unit pk
scalar Rohan_3.server.eth[2].queue queueBitLength:last 0
attr autoWarmupFilter false
attr interpolationmode sample-hold
attr recordingmode last
attr source "warmup(atomic(constant0(packetPushEnded) + sum(packetLength(packetPushStarted)) - sum(packetLength(packetPulled)) - sum(packetLength(packetRemoved)) - sum(packetLength(packetDropped))))"
attr title "queue bit length, last"
attr unit b
scalar Rohan_3.server.eth[2].queue queueBitLength:max 0
attr autoWarmupFilter false
attr interpolationmode sample-hold
attr recordingmode max
attr source "warmup(atomic(constant0(packetPushEnded) + sum(packetLength(packetPushStarted)) - sum(packetLength(packetPulled)) - sum(packetLength(packetRemoved)) - sum(packetLength(packetDropped))))"
attr title "queue bit length, max"
attr unit b
scalar Rohan_3.server.eth[2].queue queueBitLength:timeavg 0
attr autoWarmupFilter false
attr interpolationmode sample-hold
attr recordingmode timeavg
attr source "warmup(atomic(constant0(packetPushEnded) + sum(packetLength(packetPushStarted)) - sum(packetLength(packetPulled)) - sum(packetLength(packetRemoved)) - sum(packetLength(packetDropped))))"
attr title "queue bit length, timeavg"
attr unit b
statistic Rohan_3.server.eth[2].queue queueingTime:histogram
field count 0
field mean nan
field stddev nan
field min nan
field max nan
field sum 0
field sqrsum 0
attr interpolationmode none
attr recordingmode histogram
attr source queueingTime(packetPulled)
attr title "queueing times"
attr unit s
bin	-inf	0
bin	0	0
bin	1	0
scalar Rohan_3.server.eth[2].queue outgoingPackets:count 0
attr recordingmode count
attr source packetPulled
attr title "outgoing packets, count"
attr unit pk
scalar Rohan_3.server.eth[2].queue outgoingPacketLengths:sum 0
attr interpolationmode none
attr recordingmode sum
attr source packetLength(packetPulled)
attr title "outgoing packet lengths, sum"
attr unit b
statistic Rohan_3.server.eth[2].queue outgoingPacketLengths:histogram
field count 0
field mean nan
field stddev nan
field min nan
field max nan
field sum 0
field sqrsum 0
attr interpolationmode none
attr recordingmode histogram
attr source packetLength(packetPulled)
attr title "outgoing packet lengths"
attr unit b
bin	-inf	0
bin	0	0
bin	1	0
statistic Rohan_3.server.eth[2].queue flowQueueingTime:histogram
field count 0
field mean nan
field stddev nan
field min nan
field max nan
field sum 0
field sqrsum 0
attr interpolationmode none
attr recordingmode histogram
attr source queueingTime(demuxFlow(packetPulled))
attr title "flow queueing times"
attr unit s
bin	-inf	0
bin	0	0
bin	1	0
scalar Rohan_3.server.eth[2].queue incomingPackets:count 0
attr recordingmode count
attr source packetPushStarted
attr title "incoming packets, count"
attr unit pk
scalar Rohan_3.server.eth[2].queue incomingPacketLengths:sum 0
attr interpolationmode none
attr recordingmode sum
attr source packetLength(packetPushStarted)
attr title "incoming packet lengths, sum"
attr unit b
statistic Rohan_3.server.eth[2].queue incomingPacketLengths:histogram
field count 0
field mean nan
field stddev nan
field min nan
field max nan
field sum 0
field sqrsum 0
attr interpolationmode none
attr recordingmode histogram
attr source packetLength(packetPushStarted)
attr title "incoming packet lengths"
attr unit b
bin	-inf	0
bin	0	0
bin	1	0
scalar Rohan_3.server.eth[2].queue droppedPacketsQueueOverflow:count 0
attr interpolationmode none
attr recordingmode count
attr source packetDropReasonIsQueueOverflow(packetDropped)
attr title "dropped packets: queue overflow, count"
attr unit pk
scalar Rohan_3.server.eth[2].queue droppedPacketLengthsQueueOverflow:sum 0
attr interpolationmode none
attr recordingmode sum
attr source packetLength(packetDropReasonIsQueueOverflow(packetDropped))
attr title "dropped packet lengths: queue overflow, sum"
attr unit b
par Rohan_3.server.eth[2].mac typename "\"inet.linklayer.ethernet.basic.EthernetMac\""
par Rohan_3.server.eth[2].mac interfaceTableModule "\"Rohan_3.server.interfaceTable\""
par Rohan_3.server.eth[2].mac displayStringTextFormat "\"rate: %b\\nsent: %s, rcvd: %r\\nqueue: %q, drop: %d\""
par Rohan_3.server.eth[2].mac sendRawBytes false
par Rohan_3.server.eth[2].mac promiscuous false
par Rohan_3.server.eth[2].mac duplexMode true
par Rohan_3.server.eth[2].mac mtu 1500B
attr unit B
par Rohan_3.server.eth[2].mac fcsMode "\"declared\""
attr enum declared,computed
par Rohan_3.server.eth[2].mac stopOperationExtraTime -1s
attr unit s
par Rohan_3.server.eth[2].mac stopOperationTimeout 2s
attr unit s
scalar Rohan_3.server.eth[2].mac "simulated time" 20
scalar Rohan_3.server.eth[2].mac full-duplex 1
scalar Rohan_3.server.eth[2].mac "frames/sec sent" 0
scalar Rohan_3.server.eth[2].mac "frames/sec rcvd" 0
scalar Rohan_3.server.eth[2].mac "bits/sec sent" 0
scalar Rohan_3.server.eth[2].mac "bits/sec rcvd" 0
scalar Rohan_3.server.eth[2].mac "rx channel idle (%)" 100
scalar Rohan_3.server.eth[2].mac "rx channel utilization (%)" 0
scalar Rohan_3.server.eth[2].mac txPk:count 0
attr interpolationmode none
attr recordingmode count
attr source packetSentToLower
attr title "packets transmitted, count"
scalar Rohan_3.server.eth[2].mac txPk:sum(packetBytes) 0
attr interpolationmode none
attr recordingmode sum(packetBytes)
attr source packetSentToLower
attr title "packets transmitted, sum(packetBytes)"
scalar Rohan_3.server.eth[2].mac packetReceivedFromUpper:count 0
attr interpolationmode none
attr recordingmode count
attr source packetReceivedFromUpper
attr title "packet bytes from higher layer, count"
scalar Rohan_3.server.eth[2].mac packetReceivedFromUpper:sum(packetBytes) 0
attr interpolationmode none
attr recordingmode sum(packetBytes)
attr source packetReceivedFromUpper
attr title "packet bytes from higher layer, sum(packetBytes)"
scalar Rohan_3.server.eth[2].mac passedUpPk:count 0
attr interpolationmode none
attr recordingmode count
attr source packetSentToUpper
attr title "packets passed to higher layer, count"
scalar Rohan_3.server.eth[2].mac passedUpPk:sum(packetBytes) 0
attr interpolationmode none
attr recordingmode sum(packetBytes)
attr source packetSentToUpper
attr title "packets passed to higher layer, sum(packetBytes)"
scalar Rohan_3.server.eth[2].mac packetDropIncorrectlyReceived:count 0
attr interpolationmode none
attr recordingmode count
attr source packetDropReasonIsIncorrectlyReceived(packetDropped)
attr title "packet drop: incorrectly received, count"
scalar Rohan_3.server.eth[2].mac packetDropIncorrectlyReceived:sum(packetBytes) 0
attr interpolationmode none
attr recordingmode sum(packetBytes)
attr source packetDropReasonIsIncorrectlyReceived(packetDropped)
attr title "packet drop: incorrectly received, sum(packetBytes)"
scalar Rohan_3.server.eth[2].mac packetDropInterfaceDown:count 0
attr interpolationmode none
attr recordingmode count
attr source packetDropReasonIsInterfaceDown(packetDropped)
attr title "packet drop: interface down, count"
scalar Rohan_3.server.eth[2].mac packetDropInterfaceDown:sum(packetBytes) 0
attr interpolationmode none
attr recordingmode sum(packetBytes)
attr source packetDropReasonIsInterfaceDown(packetDropped)
attr title "packet drop: interface down, sum(packetBytes)"
scalar Rohan_3.server.eth[2].mac packetDropNotAddressedToUs:count 0
attr interpolationmode none
attr recordingmode count
attr source packetDropReasonIsNotAddressedToUs(packetDropped)
attr title "packet drop: not addressed to us, count"
scalar Rohan_3.server.eth[2].mac packetDropNotAddressedToUs:sum(packetBytes) 0
attr interpolationmode none
attr recordingmode sum(packetBytes)
attr source packetDropReasonIsNotAddressedToUs(packetDropped)
attr title "packet drop: not addressed to us, sum(packetBytes)"
scalar Rohan_3.server.eth[2].mac rxPausePkUnits:count 0
attr interpolationmode none
attr recordingmode count
attr title "pause units received, count"
scalar Rohan_3.server.eth[2].mac rxPausePkUnits:sum 0
attr interpolationmode none
attr recordingmode sum
attr title "pause units received, sum"
scalar Rohan_3.server.eth[2].mac txPausePkUnits:count 0
attr interpolationmode none
attr recordingmode count
attr title "pause units sent, count"
scalar Rohan_3.server.eth[2].mac txPausePkUnits:sum 0
attr interpolationmode none
attr recordingmode sum
attr title "pause units sent, sum"
scalar Rohan_3.server.eth[2].mac rxPkOk:count 0
attr interpolationmode none
attr recordingmode count
attr source rxPkOk
attr title "packets received OK, count"
scalar Rohan_3.server.eth[2].mac rxPkOk:sum(packetBytes) 0
attr interpolationmode none
attr recordingmode sum(packetBytes)
attr source rxPkOk
attr title "packets received OK, sum(packetBytes)"
par Rohan_3.server.eth[2] typename "\"inet.linklayer.ethernet.EthernetInterface\""
par Rohan_3.server.eth[2] displayStringTextFormat "\"%a (%i)\\n%m\""
par Rohan_3.server.eth[2] recordPcap false
par Rohan_3.server.eth[2] numPcapRecorders 0
par Rohan_3.server.eth[2] interfaceTableModule "\"Rohan_3.server.interfaceTable\""
par Rohan_3.server.eth[2] protocol "\"ethernetmac\""
par Rohan_3.server.eth[2] address "\"0A-AA-00-00-00-03\""
attr mutable ""
par Rohan_3.server.eth[2] duplexMode true
par Rohan_3.server.eth[2] csmacdSupport false
par Rohan_3.server.eth[2] bitrate 0bps
attr unit bps
par Rohan_3.server.eth[2] fcsMode "\"declared\""
attr enum declared,computed
scalar Rohan_3.server.eth[2] packetDropInterfaceDown:count 0
attr interpolationmode none
attr recordingmode count
attr source packetDropReasonIsInterfaceDown(packetDropped)
attr title "packet drops: interface down, count"
scalar Rohan_3.server.eth[2] packetDropInterfaceDown:sum(packetBytes) 0
attr interpolationmode none
attr recordingmode sum(packetBytes)
attr source packetDropReasonIsInterfaceDown(packetDropped)
attr title "packet drops: interface down, sum(packetBytes)"
scalar Rohan_3.server.eth[2] packetDropNoCarrier:count 0
attr interpolationmode none
attr recordingmode count
attr source packetDropReasonIsNoCarrier(packetDropped)
attr title "packet drops: no carrier, count"
scalar Rohan_3.server.eth[2] packetDropNoCarrier:sum(packetBytes) 0
attr interpolationmode none
attr recordingmode sum(packetBytes)
attr source packetDropReasonIsNoCarrier(packetDropped)
attr title "packet drops: no carrier, sum(packetBytes)"
par Rohan_3.server.eth[3].mac.phys$o.channel typename "\"ned.IdealChannel\""
par Rohan_3.server.eth[3].phys$i.channel typename "\"ned.IdealChannel\""
par Rohan_3.server.eth[3].upperLayerIn.channel typename "\"ned.IdealChannel\""
par Rohan_3.server.eth[3].mac.upperLayerOut.channel typename "\"ned.IdealChannel\""
par Rohan_3.server.eth[3].queue typename "\"inet.linklayer.ethernet.common.EthernetQueue\""
par Rohan_3.server.eth[3].queue displayStringTextFormat "\"contains %p pk (%l) pushed %u\\npulled %o removed %r dropped %d\""
par Rohan_3.server.eth[3].queue packetCapacity 1000
par Rohan_3.server.eth[3].queue dataCapacity -1b
attr unit b
par Rohan_3.server.eth[3].queue dropperClass "\"inet::queueing::PacketAtCollectionEndDropper\""
par Rohan_3.server.eth[3].queue comparatorClass "\"inet::EthernetFrameTypeComparator\""
par Rohan_3.server.eth[3].queue bufferModule "\"\""
scalar Rohan_3.server.eth[3].queue queueLength:last 0
attr autoWarmupFilter false
attr interpolationmode sample-hold
attr recordingmode last
attr source "warmup(atomic(constant0(packetPushEnded) + count(packetPushStarted) - count(packetPulled) - count(packetRemoved) - count(packetDropped)))"
attr title "queue length, last"
attr unit pk
scalar Rohan_3.server.eth[3].queue queueLength:max 0
attr autoWarmupFilter false
attr interpolationmode sample-hold
attr recordingmode max
attr source "warmup(atomic(constant0(packetPushEnded) + count(packetPushStarted) - count(packetPulled) - count(packetRemoved) - count(packetDropped)))"
attr title "queue length, max"
attr unit pk
scalar Rohan_3.server.eth[3].queue queueLength:timeavg 0
attr autoWarmupFilter false
attr interpolationmode sample-hold
attr recordingmode timeavg
attr source "warmup(atomic(constant0(packetPushEnded) + count(packetPushStarted) - count(packetPulled) - count(packetRemoved) - count(packetDropped)))"
attr title "queue length, timeavg"
attr unit pk
scalar Rohan_3.server.eth[3].queue queueBitLength:last 0
attr autoWarmupFilter false
attr interpolationmode sample-hold
attr recordingmode last
attr source "warmup(atomic(constant0(packetPushEnded) + sum(packetLength(packetPushStarted)) - sum(packetLength(packetPulled)) - sum(packetLength(packetRemoved)) - sum(packetLength(packetDropped))))"
attr title "queue bit length, last"
attr unit b
scalar Rohan_3.server.eth[3].queue queueBitLength:max 0
attr autoWarmupFilter false
attr interpolationmode sample-hold
attr recordingmode max
attr source "warmup(atomic(constant0(packetPushEnded) + sum(packetLength(packetPushStarted)) - sum(packetLength(packetPulled)) - sum(packetLength(packetRemoved)) - sum(packetLength(packetDropped))))"
attr title "queue bit length, max"
attr unit b
scalar Rohan_3.server.eth[3].queue queueBitLength:timeavg 0
attr autoWarmupFilter false
attr interpolationmode sample-hold
attr recordingmode timeavg
attr source "warmup(atomic(constant0(packetPushEnded) + sum(packetLength(packetPushStarted)) - sum(packetLength(packetPulled)) - sum(packetLength(packetRemoved)) - sum(packetLength(packetDropped))))"
attr title "queue bit length, timeavg"
attr unit b
statistic Rohan_3.server.eth[3].queue queueingTime:histogram
field count 0
field mean nan
field stddev nan
field min nan
field max nan
field sum 0
field sqrsum 0
attr interpolationmode none
attr recordingmode histogram
attr source queueingTime(packetPulled)
attr title "queueing times"
attr unit s
bin	-inf	0
bin	0	0
bin	1	0
scalar Rohan_3.server.eth[3].queue outgoingPackets:count 0
attr recordingmode count
attr source packetPulled
attr title "outgoing packets, count"
attr unit pk
scalar Rohan_3.server.eth[3].queue outgoingPacketLengths:sum 0
attr interpolationmode none
attr recordingmode sum
attr source packetLength(packetPulled)
attr title "outgoing packet lengths, sum"
attr unit b
statistic Rohan_3.server.eth[3].queue outgoingPacketLengths:histogram
field count 0
field mean nan
field stddev nan
field min nan
field max nan
field sum 0
field sqrsum 0
attr interpolationmode none
attr recordingmode histogram
attr source packetLength(packetPulled)
attr title "outgoing packet lengths"
attr unit b
bin	-inf	0
bin	0	0
bin	1	0
statistic Rohan_3.server.eth[3].queue flowQueueingTime:histogram
field count 0
field mean nan
field stddev nan
field min nan
field max nan
field sum 0
field sqrsum 0
attr interpolationmode none
attr recordingmode histogram
attr source queueingTime(demuxFlow(packetPulled))
attr title "flow queueing times"
attr unit s
bin	-inf	0
bin	0	0
bin	1	0
scalar Rohan_3.server.eth[3].queue incomingPackets:count 0
attr recordingmode count
attr source packetPushStarted
attr title "incoming packets, count"
attr unit pk
scalar Rohan_3.server.eth[3].queue incomingPacketLengths:sum 0
attr interpolationmode none
attr recordingmode sum
attr source packetLength(packetPushStarted)
attr title "incoming packet lengths, sum"
attr unit b
statistic Rohan_3.server.eth[3].queue incomingPacketLengths:histogram
field count 0
field mean nan
field stddev nan
field min nan
field max nan
field sum 0
field sqrsum 0
attr interpolationmode none
attr recordingmode histogram
attr source packetLength(packetPushStarted)
attr title "incoming packet lengths"
attr unit b
bin	-inf	0
bin	0	0
bin	1	0
scalar Rohan_3.server.eth[3].queue droppedPacketsQueueOverflow:count 0
attr interpolationmode none
attr recordingmode count
attr source packetDropReasonIsQueueOverflow(packetDropped)
attr title "dropped packets: queue overflow, count"
attr unit pk
scalar Rohan_3.server.eth[3].queue droppedPacketLengthsQueueOverflow:sum 0
attr interpolationmode none
attr recordingmode sum
attr source packetLength(packetDropReasonIsQueueOverflow(packetDropped))
attr title "dropped packet lengths: queue overflow, sum"
attr unit b
par Rohan_3.server.eth[3].mac typename "\"inet.linklayer.ethernet.basic.EthernetMac\""
par Rohan_3.server.eth[3].mac interfaceTableModule "\"Rohan_3.server.interfaceTable\""
par Rohan_3.server.eth[3].mac displayStringTextFormat "\"rate: %b\\nsent: %s, rcvd: %r\\nqueue: %q, drop: %d\""
par Rohan_3.server.eth[3].mac sendRawBytes false
par Rohan_3.server.eth[3].mac promiscuous false
par Rohan_3.server.eth[3].mac duplexMode true
par Rohan_3.server.eth[3].mac mtu 1500B
attr unit B
par Rohan_3.server.eth[3].mac fcsMode "\"declared\""
attr enum declared,computed
par Rohan_3.server.eth[3].mac stopOperationExtraTime -1s
attr unit s
par Rohan_3.server.eth[3].mac stopOperationTimeout 2s
attr unit s
scalar Rohan_3.server.eth[3].mac "simulated time" 20
scalar Rohan_3.server.eth[3].mac full-duplex 1
scalar Rohan_3.server.eth[3].mac "frames/sec sent" 0
scalar Rohan_3.server.eth[3].mac "frames/sec rcvd" 0
scalar Rohan_3.server.eth[3].mac "bits/sec sent" 0
scalar Rohan_3.server.eth[3].mac "bits/sec rcvd" 0
scalar Rohan_3.server.eth[3].mac "rx channel idle (%)" 100
scalar Rohan_3.server.eth[3].mac "rx channel utilization (%)" 0
scalar Rohan_3.server.eth[3].mac txPk:count 0
attr interpolationmode none
attr recordingmode count
attr source packetSentToLower
attr title "packets transmitted, count"
scalar Rohan_3.server.eth[3].mac txPk:sum(packetBytes) 0
attr interpolationmode none
attr recordingmode sum(packetBytes)
attr source packetSentToLower
attr title "packets transmitted, sum(packetBytes)"
scalar Rohan_3.server.eth[3].mac packetReceivedFromUpper:count 0
attr interpolationmode none
attr recordingmode count
attr source packetReceivedFromUpper
attr title "packet bytes from higher layer, count"
scalar Rohan_3.server.eth[3].mac packetReceivedFromUpper:sum(packetBytes) 0
attr interpolationmode none
attr recordingmode sum(packetBytes)
attr source packetReceivedFromUpper
attr title "packet bytes from higher layer, sum(packetBytes)"
scalar Rohan_3.server.eth[3].mac passedUpPk:count 0
attr interpolationmode none
attr recordingmode count
attr source packetSentToUpper
attr title "packets passed to higher layer, count"
scalar Rohan_3.server.eth[3].mac passedUpPk:sum(packetBytes) 0
attr interpolationmode none
attr recordingmode sum(packetBytes)
attr source packetSentToUpper
attr title "packets passed to higher layer, sum(packetBytes)"
scalar Rohan_3.server.eth[3].mac packetDropIncorrectlyReceived:count 0
attr interpolationmode none
attr recordingmode count
attr source packetDropReasonIsIncorrectlyReceived(packetDropped)
attr title "packet drop: incorrectly received, count"
scalar Rohan_3.server.eth[3].mac packetDropIncorrectlyReceived:sum(packetBytes) 0
attr interpolationmode none
attr recordingmode sum(packetBytes)
attr source packetDropReasonIsIncorrectlyReceived(packetDropped)
attr title "packet drop: incorrectly received, sum(packetBytes)"
scalar Rohan_3.server.eth[3].mac packetDropInterfaceDown:count 0
attr interpolationmode none
attr recordingmode count
attr source packetDropReasonIsInterfaceDown(packetDropped)
attr title "packet drop: interface down, count"
scalar Rohan_3.server.eth[3].mac packetDropInterfaceDown:sum(packetBytes) 0
attr interpolationmode none
attr recordingmode sum(packetBytes)
attr source packetDropReasonIsInterfaceDown(packetDropped)
attr title "packet drop: interface down, sum(packetBytes)"
scalar Rohan_3.server.eth[3].mac packetDropNotAddressedToUs:count 0
attr interpolationmode none
attr recordingmode count
attr source packetDropReasonIsNotAddressedToUs(packetDropped)
attr title "packet drop: not addressed to us, count"
scalar Rohan_3.server.eth[3].mac packetDropNotAddressedToUs:sum(packetBytes) 0
attr interpolationmode none
attr recordingmode sum(packetBytes)
attr source packetDropReasonIsNotAddressedToUs(packetDropped)
attr title "packet drop: not addressed to us, sum(packetBytes)"
scalar Rohan_3.server.eth[3].mac rxPausePkUnits:count 0
attr interpolationmode none
attr recordingmode count
attr title "pause units received, count"
scalar Rohan_3.server.eth[3].mac rxPausePkUnits:sum 0
attr interpolationmode none
attr recordingmode sum
attr title "pause units received, sum"
scalar Rohan_3.server.eth[3].mac txPausePkUnits:count 0
attr interpolationmode none
attr recordingmode count
attr title "pause units sent, count"
scalar Rohan_3.server.eth[3].mac txPausePkUnits:sum 0
attr interpolationmode none
attr recordingmode sum
attr title "pause units sent, sum"
scalar Rohan_3.server.eth[3].mac rxPkOk:count 0
attr interpolationmode none
attr recordingmode count
attr source rxPkOk
attr title "packets received OK, count"
scalar Rohan_3.server.eth[3].mac rxPkOk:sum(packetBytes) 0
attr interpolationmode none
attr recordingmode sum(packetBytes)
attr source rxPkOk
attr title "packets received OK, sum(packetBytes)"
par Rohan_3.server.eth[3] typename "\"inet.linklayer.ethernet.EthernetInterface\""
par Rohan_3.server.eth[3] displayStringTextFormat "\"%a (%i)\\n%m\""
par Rohan_3.server.eth[3] recordPcap false
par Rohan_3.server.eth[3] numPcapRecorders 0
par Rohan_3.server.eth[3] interfaceTableModule "\"Rohan_3.server.interfaceTable\""
par Rohan_3.server.eth[3] protocol "\"ethernetmac\""
par Rohan_3.server.eth[3] address "\"0A-AA-00-00-00-04\""
attr mutable ""
par Rohan_3.server.eth[3] duplexMode true
par Rohan_3.server.eth[3] csmacdSupport false
par Rohan_3.server.eth[3] bitrate 0bps
attr unit bps
par Rohan_3.server.eth[3] fcsMode "\"declared\""
attr enum declared,computed
scalar Rohan_3.server.eth[3] packetDropInterfaceDown:count 0
attr interpolationmode none
attr recordingmode count
attr source packetDropReasonIsInterfaceDown(packetDropped)
attr title "packet drops: interface down, count"
scalar Rohan_3.server.eth[3] packetDropInterfaceDown:sum(packetBytes) 0
attr interpolationmode none
attr recordingmode sum(packetBytes)
attr source packetDropReasonIsInterfaceDown(packetDropped)
attr title "packet drops: interface down, sum(packetBytes)"
scalar Rohan_3.server.eth[3] packetDropNoCarrier:count 0
attr interpolationmode none
attr recordingmode count
attr source packetDropReasonIsNoCarrier(packetDropped)
attr title "packet drops: no carrier, count"
scalar Rohan_3.server.eth[3] packetDropNoCarrier:sum(packetBytes) 0
attr interpolationmode none
attr recordingmode sum(packetBytes)
attr source packetDropReasonIsNoCarrier(packetDropped)
attr title "packet drops: no carrier, sum(packetBytes)"
par Rohan_3.server.eth[4].mac.phys$o.channel typename "\"ned.IdealChannel\""
par Rohan_3.server.eth[4].phys$i.channel typename "\"ned.IdealChannel\""
par Rohan_3.server.eth[4].upperLayerIn.channel typename "\"ned.IdealChannel\""
par Rohan_3.server.eth[4].mac.upperLayerOut.channel typename "\"ned.IdealChannel\""
par Rohan_3.server.eth[4].queue typename "\"inet.linklayer.ethernet.common.EthernetQueue\""
par Rohan_3.server.eth[4].queue displayStringTextFormat "\"contains %p pk (%l) pushed %u\\npulled %o removed %r dropped %d\""
par Rohan_3.server.eth[4].queue packetCapacity 1000
par Rohan_3.server.eth[4].queue dataCapacity -1b
attr unit b
par Rohan_3.server.eth[4].queue dropperClass "\"inet::queueing::PacketAtCollectionEndDropper\""
par Rohan_3.server.eth[4].queue comparatorClass "\"inet::EthernetFrameTypeComparator\""
par Rohan_3.server.eth[4].queue bufferModule "\"\""
scalar Rohan_3.server.eth[4].queue queueLength:last 0
attr autoWarmupFilter false
attr interpolationmode sample-hold
attr recordingmode last
attr source "warmup(atomic(constant0(packetPushEnded) + count(packetPushStarted) - count(packetPulled) - count(packetRemoved) - count(packetDropped)))"
attr title "queue length, last"
attr unit pk
scalar Rohan_3.server.eth[4].queue queueLength:max 0
attr autoWarmupFilter false
attr interpolationmode sample-hold
attr recordingmode max
attr source "warmup(atomic(constant0(packetPushEnded) + count(packetPushStarted) - count(packetPulled) - count(packetRemoved) - count(packetDropped)))"
attr title "queue length, max"
attr unit pk
scalar Rohan_3.server.eth[4].queue queueLength:timeavg 0
attr autoWarmupFilter false
attr interpolationmode sample-hold
attr recordingmode timeavg
attr source "warmup(atomic(constant0(packetPushEnded) + count(packetPushStarted) - count(packetPulled) - count(packetRemoved) - count(packetDropped)))"
attr title "queue length, timeavg"
attr unit pk
scalar Rohan_3.server.eth[4].queue queueBitLength:last 0
attr autoWarmupFilter false
attr interpolationmode sample-hold
attr recordingmode last
attr source "warmup(atomic(constant0(packetPushEnded) + sum(packetLength(packetPushStarted)) - sum(packetLength(packetPulled)) - sum(packetLength(packetRemoved)) - sum(packetLength(packetDropped))))"
attr title "queue bit length, last"
attr unit b
scalar Rohan_3.server.eth[4].queue queueBitLength:max 0
attr autoWarmupFilter false
attr interpolationmode sample-hold
attr recordingmode max
attr source "warmup(atomic(constant0(packetPushEnded) + sum(packetLength(packetPushStarted)) - sum(packetLength(packetPulled)) - sum(packetLength(packetRemoved)) - sum(packetLength(packetDropped))))"
attr title "queue bit length, max"
attr unit b
scalar Rohan_3.server.eth[4].queue queueBitLength:timeavg 0
attr autoWarmupFilter false
attr interpolationmode sample-hold
attr recordingmode timeavg
attr source "warmup(atomic(constant0(packetPushEnded) + sum(packetLength(packetPushStarted)) - sum(packetLength(packetPulled)) - sum(packetLength(packetRemoved)) - sum(packetLength(packetDropped))))"
attr title "queue bit length, timeavg"
attr unit b
statistic Rohan_3.server.eth[4].queue queueingTime:histogram
field count 0
field mean nan
field stddev nan
field min nan
field max nan
field sum 0
field sqrsum 0
attr interpolationmode none
attr recordingmode histogram
attr source queueingTime(packetPulled)
attr title "queueing times"
attr unit s
bin	-inf	0
bin	0	0
bin	1	0
scalar Rohan_3.server.eth[4].queue outgoingPackets:count 0
attr recordingmode count
attr source packetPulled
attr title "outgoing packets, count"
attr unit pk
scalar Rohan_3.server.eth[4].queue outgoingPacketLengths:sum 0
attr interpolationmode none
attr recordingmode sum
attr source packetLength(packetPulled)
attr title "outgoing packet lengths, sum"
attr unit b
statistic Rohan_3.server.eth[4].queue outgoingPacketLengths:histogram
field count 0
field mean nan
field stddev nan
field min nan
field max nan
field sum 0
field sqrsum 0
attr interpolationmode none
attr recordingmode histogram
attr source packetLength(packetPulled)
attr title "outgoing packet lengths"
attr unit b
bin	-inf	0
bin	0	0
bin	1	0
statistic Rohan_3.server.eth[4].queue flowQueueingTime:histogram
field count 0
field mean nan
field stddev nan
field min nan
field max nan
field sum 0
field sqrsum 0
attr interpolationmode none
attr recordingmode histogram
attr source queueingTime(demuxFlow(packetPulled))
attr title "flow queueing times"
attr unit s
bin	-inf	0
bin	0	0
bin	1	0
scalar Rohan_3.server.eth[4].queue incomingPackets:count 0
attr recordingmode count
attr source packetPushStarted
attr title "incoming packets, count"
attr unit pk
scalar Rohan_3.server.eth[4].queue incomingPacketLengths:sum 0
attr interpolationmode none
attr recordingmode sum
attr source packetLength(packetPushStarted)
attr title "incoming packet lengths, sum"
attr unit b
statistic Rohan_3.server.eth[4].queue incomingPacketLengths:histogram
field count 0
field mean nan
field stddev nan
field min nan
field max nan
field sum 0
field sqrsum 0
attr interpolationmode none
attr recordingmode histogram
attr source packetLength(packetPushStarted)
attr title "incoming packet lengths"
attr unit b
bin	-inf	0
bin	0	0
bin	1	0
scalar Rohan_3.server.eth[4].queue droppedPacketsQueueOverflow:count 0
attr interpolationmode none
attr recordingmode count
attr source packetDropReasonIsQueueOverflow(packetDropped)
attr title "dropped packets: queue overflow, count"
attr unit pk
scalar Rohan_3.server.eth[4].queue droppedPacketLengthsQueueOverflow:sum 0
attr interpolationmode none
attr recordingmode sum
attr source packetLength(packetDropReasonIsQueueOverflow(packetDropped))
attr title "dropped packet lengths: queue overflow, sum"
attr unit b
par Rohan_3.server.eth[4].mac typename "\"inet.linklayer.ethernet.basic.EthernetMac\""
par Rohan_3.server.eth[4].mac interfaceTableModule "\"Rohan_3.server.interfaceTable\""
par Rohan_3.server.eth[4].mac displayStringTextFormat "\"rate: %b\\nsent: %s, rcvd: %r\\nqueue: %q, drop: %d\""
par Rohan_3.server.eth[4].mac sendRawBytes false
par Rohan_3.server.eth[4].mac promiscuous false
par Rohan_3.server.eth[4].mac duplexMode true
par Rohan_3.server.eth[4].mac mtu 1500B
attr unit B
par Rohan_3.server.eth[4].mac fcsMode "\"declared\""
attr enum declared,computed
par Rohan_3.server.eth[4].mac stopOperationExtraTime -1s
attr unit s
par Rohan_3.server.eth[4].mac stopOperationTimeout 2s
attr unit s
scalar Rohan_3.server.eth[4].mac "simulated time" 20
scalar Rohan_3.server.eth[4].mac full-duplex 1
scalar Rohan_3.server.eth[4].mac "frames/sec sent" 0
scalar Rohan_3.server.eth[4].mac "frames/sec rcvd" 0
scalar Rohan_3.server.eth[4].mac "bits/sec sent" 0
scalar Rohan_3.server.eth[4].mac "bits/sec rcvd" 0
scalar Rohan_3.server.eth[4].mac "rx channel idle (%)" 100
scalar Rohan_3.server.eth[4].mac "rx channel utilization (%)" 0
scalar Rohan_3.server.eth[4].mac txPk:count 0
attr interpolationmode none
attr recordingmode count
attr source packetSentToLower
attr title "packets transmitted, count"
scalar Rohan_3.server.eth[4].mac txPk:sum(packetBytes) 0
attr interpolationmode none
attr recordingmode sum(packetBytes)
attr source packetSentToLower
attr title "packets transmitted, sum(packetBytes)"
scalar Rohan_3.server.eth[4].mac packetReceivedFromUpper:count 0
attr interpolationmode none
attr recordingmode count
attr source packetReceivedFromUpper
attr title "packet bytes from higher layer, count"
scalar Rohan_3.server.eth[4].mac packetReceivedFromUpper:sum(packetBytes) 0
attr interpolationmode none
attr recordingmode sum(packetBytes)
attr source packetReceivedFromUpper
attr title "packet bytes from higher layer, sum(packetBytes)"
scalar Rohan_3.server.eth[4].mac passedUpPk:count 0
attr interpolationmode none
attr recordingmode count
attr source packetSentToUpper
attr title "packets passed to higher layer, count"
scalar Rohan_3.server.eth[4].mac passedUpPk:sum(packetBytes) 0
attr interpolationmode none
attr recordingmode sum(packetBytes)
attr source packetSentToUpper
attr title "packets passed to higher layer, sum(packetBytes)"
scalar Rohan_3.server.eth[4].mac packetDropIncorrectlyReceived:count 0
attr interpolationmode none
attr recordingmode count
attr source packetDropReasonIsIncorrectlyReceived(packetDropped)
attr title "packet drop: incorrectly received, count"
scalar Rohan_3.server.eth[4].mac packetDropIncorrectlyReceived:sum(packetBytes) 0
attr interpolationmode none
attr recordingmode sum(packetBytes)
attr source packetDropReasonIsIncorrectlyReceived(packetDropped)
attr title "packet drop: incorrectly received, sum(packetBytes)"
scalar Rohan_3.server.eth[4].mac packetDropInterfaceDown:count 0
attr interpolationmode none
attr recordingmode count
attr source packetDropReasonIsInterfaceDown(packetDropped)
attr title "packet drop: interface down, count"
scalar Rohan_3.server.eth[4].mac packetDropInterfaceDown:sum(packetBytes) 0
attr interpolationmode none
attr recordingmode sum(packetBytes)
attr source packetDropReasonIsInterfaceDown(packetDropped)
attr title "packet drop: interface down, sum(packetBytes)"
scalar Rohan_3.server.eth[4].mac packetDropNotAddressedToUs:count 0
attr interpolationmode none
attr recordingmode count
attr source packetDropReasonIsNotAddressedToUs(packetDropped)
attr title "packet drop: not addressed to us, count"
scalar Rohan_3.server.eth[4].mac packetDropNotAddressedToUs:sum(packetBytes) 0
attr interpolationmode none
attr recordingmode sum(packetBytes)
attr source packetDropReasonIsNotAddressedToUs(packetDropped)
attr title "packet drop: not addressed to us, sum(packetBytes)"
scalar Rohan_3.server.eth[4].mac rxPausePkUnits:count 0
attr interpolationmode none
attr recordingmode count
attr title "pause units received, count"
scalar Rohan_3.server.eth[4].mac rxPausePkUnits:sum 0
attr interpolationmode none
attr recordingmode sum
attr title "pause units received, sum"
scalar Rohan_3.server.eth[4].mac txPausePkUnits:count 0
attr interpolationmode none
attr recordingmode count
attr title "pause units sent, count"
scalar Rohan_3.server.eth[4].mac txPausePkUnits:sum 0
attr interpolationmode none
attr recordingmode sum
attr title "pause units sent, sum"
scalar Rohan_3.server.eth[4].mac rxPkOk:count 0
attr interpolationmode none
attr recordingmode count
attr source rxPkOk
attr title "packets received OK, count"
scalar Rohan_3.server.eth[4].mac rxPkOk:sum(packetBytes) 0
attr interpolationmode none
attr recordingmode sum(packetBytes)
attr source rxPkOk
attr title "packets received OK, sum(packetBytes)"
par Rohan_3.server.eth[4] typename "\"inet.linklayer.ethernet.EthernetInterface\""
par Rohan_3.server.eth[4] displayStringTextFormat "\"%a (%i)\\n%m\""
par Rohan_3.server.eth[4] recordPcap false
par Rohan_3.server.eth[4] numPcapRecorders 0
par Rohan_3.server.eth[4] interfaceTableModule "\"Rohan_3.server.interfaceTable\""
par Rohan_3.server.eth[4] protocol "\"ethernetmac\""
par Rohan_3.server.eth[4] address "\"0A-AA-00-00-00-05\""
attr mutable ""
par Rohan_3.server.eth[4] duplexMode true
par Rohan_3.server.eth[4] csmacdSupport false
par Rohan_3.server.eth[4] bitrate 0bps
attr unit bps
par Rohan_3.server.eth[4] fcsMode "\"declared\""
attr enum declared,computed
scalar Rohan_3.server.eth[4] packetDropInterfaceDown:count 0
attr interpolationmode none
attr recordingmode count
attr source packetDropReasonIsInterfaceDown(packetDropped)
attr title "packet drops: interface down, count"
scalar Rohan_3.server.eth[4] packetDropInterfaceDown:sum(packetBytes) 0
attr interpolationmode none
attr recordingmode sum(packetBytes)
attr source packetDropReasonIsInterfaceDown(packetDropped)
attr title "packet drops: interface down, sum(packetBytes)"
scalar Rohan_3.server.eth[4] packetDropNoCarrier:count 0
attr interpolationmode none
attr recordingmode count
attr source packetDropReasonIsNoCarrier(packetDropped)
attr title "packet drops: no carrier, count"
scalar Rohan_3.server.eth[4] packetDropNoCarrier:sum(packetBytes) 0
attr interpolationmode none
attr recordingmode sum(packetBytes)
attr source packetDropReasonIsNoCarrier(packetDropped)
attr title "packet drops: no carrier, sum(packetBytes)"
par Rohan_3.server.ipv4.transportIn.channel typename "\"ned.IdealChannel\""
par Rohan_3.server.ipv4.up.out[0].channel typename "\"ned.IdealChannel\""
par Rohan_3.server.ipv4.lp.out[2].channel typename "\"ned.IdealChannel\""
par Rohan_3.server.ipv4.ifIn.channel typename "\"ned.IdealChannel\""
par Rohan_3.server.ipv4.configurator typename "\"inet.networklayer.configurator.ipv4.Ipv4NodeConfigurator\""
par Rohan_3.server.ipv4.configurator interfaceTableModule "\"Rohan_3.server.interfaceTable\""
par Rohan_3.server.ipv4.configurator routingTableModule "\"Rohan_3.server.ipv4.routingTable\""
par Rohan_3.server.ipv4.configurator networkConfiguratorModule "\"configurator\""
par Rohan_3.server.ipv4.configurator configureRoutingTable true
par Rohan_3.server.ipv4.routingTable typename "\"inet.networklayer.ipv4.Ipv4RoutingTable\""
par Rohan_3.server.ipv4.routingTable interfaceTableModule "\"Rohan_3.server.interfaceTable\""
par Rohan_3.server.ipv4.routingTable routerId "\"auto\""
par Rohan_3.server.ipv4.routingTable netmaskRoutes "\"*\""
par Rohan_3.server.ipv4.routingTable forwarding false
par Rohan_3.server.ipv4.routingTable multicastForwarding false
par Rohan_3.server.ipv4.routingTable useAdminDist false
par Rohan_3.server.ipv4.routingTable routingFile "\"\""
par Rohan_3.server.ipv4.natTable typename "\"inet.networklayer.ipv4.Ipv4NatTable\""
par Rohan_3.server.ipv4.natTable networkProtocolModule "\"^.ip\""
par Rohan_3.server.ipv4.natTable config "<config/> at content:1"
par Rohan_3.server.ipv4.up typename "\"inet.common.MessageDispatcher\""
par Rohan_3.server.ipv4.up displayStringTextFormat "\"processed %p pk (%l)\""
par Rohan_3.server.ipv4.up forwardServiceRegistration true
par Rohan_3.server.ipv4.up forwardProtocolRegistration true
par Rohan_3.server.ipv4.igmp typename "\"inet.networklayer.ipv4.Igmpv2\""
par Rohan_3.server.ipv4.igmp interfaceTableModule "\"Rohan_3.server.interfaceTable\""
par Rohan_3.server.ipv4.igmp routingTableModule "\"Rohan_3.server.ipv4.routingTable\""
par Rohan_3.server.ipv4.igmp crcMode "\"declared\""
attr enum declared,computed
par Rohan_3.server.ipv4.igmp enabled true
par Rohan_3.server.ipv4.igmp robustnessVariable 2
par Rohan_3.server.ipv4.igmp queryInterval 125s
attr unit s
par Rohan_3.server.ipv4.igmp queryResponseInterval 10s
attr unit s
par Rohan_3.server.ipv4.igmp groupMembershipInterval 260s
attr unit s
par Rohan_3.server.ipv4.igmp otherQuerierPresentInterval 255s
attr unit s
par Rohan_3.server.ipv4.igmp startupQueryInterval 31.25s
attr unit s
par Rohan_3.server.ipv4.igmp startupQueryCount 2
par Rohan_3.server.ipv4.igmp lastMemberQueryInterval 1s
attr unit s
par Rohan_3.server.ipv4.igmp lastMemberQueryCount 2
par Rohan_3.server.ipv4.igmp unsolicitedReportInterval 10s
attr unit s
par Rohan_3.server.ipv4.icmp typename "\"inet.networklayer.ipv4.Icmp\""
par Rohan_3.server.ipv4.icmp interfaceTableModule "\"Rohan_3.server.interfaceTable\""
par Rohan_3.server.ipv4.icmp routingTableModule "\"Rohan_3.server.ipv4.routingTable\""
par Rohan_3.server.ipv4.icmp crcMode "\"declared\""
attr enum declared,computed
attr mutable ""
par Rohan_3.server.ipv4.icmp quoteLength 8B
attr mutable ""
attr unit B
par Rohan_3.server.ipv4.mp typename "\"inet.common.MessageDispatcher\""
par Rohan_3.server.ipv4.mp displayStringTextFormat "\"processed %p pk (%l)\""
par Rohan_3.server.ipv4.mp forwardServiceRegistration true
par Rohan_3.server.ipv4.mp forwardProtocolRegistration true
par Rohan_3.server.ipv4.ip typename "\"inet.networklayer.ipv4.Ipv4\""
par Rohan_3.server.ipv4.ip interfaceTableModule "\"Rohan_3.server.interfaceTable\""
par Rohan_3.server.ipv4.ip routingTableModule "\"Rohan_3.server.ipv4.routingTable\""
par Rohan_3.server.ipv4.ip arpModule "\"Rohan_3.server.ipv4.arp\""
par Rohan_3.server.ipv4.ip icmpModule "\"Rohan_3.server.ipv4.icmp\""
par Rohan_3.server.ipv4.ip crcMode "\"declared\""
attr enum declared,computed
par Rohan_3.server.ipv4.ip timeToLive 32
par Rohan_3.server.ipv4.ip multicastTimeToLive 32
par Rohan_3.server.ipv4.ip fragmentTimeout 60s
attr unit s
par Rohan_3.server.ipv4.ip limitedBroadcast false
par Rohan_3.server.ipv4.ip directBroadcastInterfaces "\"\""
scalar Rohan_3.server.ipv4.ip packetDropAddressResolutionFailed:count 0
attr interpolationmode none
attr recordingmode count
attr source packetDropReasonIsAddressResolutionFailed(packetDropped)
attr title "packet drop: address resolution failed, count"
scalar Rohan_3.server.ipv4.ip packetDropAddressResolutionFailed:sum(packetBytes) 0
attr interpolationmode none
attr recordingmode sum(packetBytes)
attr source packetDropReasonIsAddressResolutionFailed(packetDropped)
attr title "packet drop: address resolution failed, sum(packetBytes)"
scalar Rohan_3.server.ipv4.ip packetDropHopLimitReached:count 0
attr interpolationmode none
attr recordingmode count
attr source packetDropReasonIsHopLimitReached(packetDropped)
attr title "packet drop: hop limit reached, count"
scalar Rohan_3.server.ipv4.ip packetDropHopLimitReached:sum(packetBytes) 0
attr interpolationmode none
attr recordingmode sum(packetBytes)
attr source packetDropReasonIsHopLimitReached(packetDropped)
attr title "packet drop: hop limit reached, sum(packetBytes)"
scalar Rohan_3.server.ipv4.ip packetDropForwardingDisabled:count 0
attr interpolationmode none
attr recordingmode count
attr source packetDropReasonIsForwardingDisabled(packetDropped)
attr title "packet drop: forwarding disabled, count"
scalar Rohan_3.server.ipv4.ip packetDropForwardingDisabled:sum(packetBytes) 0
attr interpolationmode none
attr recordingmode sum(packetBytes)
attr source packetDropReasonIsForwardingDisabled(packetDropped)
attr title "packet drop: forwarding disabled, sum(packetBytes)"
scalar Rohan_3.server.ipv4.ip packetDropNoInterfaceFound:count 0
attr interpolationmode none
attr recordingmode count
[...]
attr recordingmode count
attr source packetReceivedFromUpper
attr title "packet bytes from higher layer, count"
scalar Rohan_3.client5.eth[0].mac packetReceivedFromUpper:sum(packetBytes) 0
attr interpolationmode none
attr recordingmode sum(packetBytes)
attr source packetReceivedFromUpper
attr title "packet bytes from higher layer, sum(packetBytes)"
scalar Rohan_3.client5.eth[0].mac passedUpPk:count 0
attr interpolationmode none
attr recordingmode count
attr source packetSentToUpper
attr title "packets passed to higher layer, count"
scalar Rohan_3.client5.eth[0].mac passedUpPk:sum(packetBytes) 0
attr interpolationmode none
attr recordingmode sum(packetBytes)
attr source packetSentToUpper
attr title "packets passed to higher layer, sum(packetBytes)"
scalar Rohan_3.client5.eth[0].mac packetDropIncorrectlyReceived:count 0
attr interpolationmode none
attr recordingmode count
attr source packetDropReasonIsIncorrectlyReceived(packetDropped)
attr title "packet drop: incorrectly received, count"
scalar Rohan_3.client5.eth[0].mac packetDropIncorrectlyReceived:sum(packetBytes) 0
attr interpolationmode none
attr recordingmode sum(packetBytes)
attr source packetDropReasonIsIncorrectlyReceived(packetDropped)
attr title "packet drop: incorrectly received, sum(packetBytes)"
scalar Rohan_3.client5.eth[0].mac packetDropInterfaceDown:count 0
attr interpolationmode none
attr recordingmode count
attr source packetDropReasonIsInterfaceDown(packetDropped)
attr title "packet drop: interface down, count"
scalar Rohan_3.client5.eth[0].mac packetDropInterfaceDown:sum(packetBytes) 0
attr interpolationmode none
attr recordingmode sum(packetBytes)
attr source packetDropReasonIsInterfaceDown(packetDropped)
attr title "packet drop: interface down, sum(packetBytes)"
scalar Rohan_3.client5.eth[0].mac packetDropNotAddressedToUs:count 0
attr interpolationmode none
attr recordingmode count
attr source packetDropReasonIsNotAddressedToUs(packetDropped)
attr title "packet drop: not addressed to us, count"
scalar Rohan_3.client5.eth[0].mac packetDropNotAddressedToUs:sum(packetBytes) 0
attr interpolationmode none
attr recordingmode sum(packetBytes)
attr source packetDropReasonIsNotAddressedToUs(packetDropped)
attr title "packet drop: not addressed to us, sum(packetBytes)"
scalar Rohan_3.client5.eth[0].mac rxPausePkUnits:count 0
attr interpolationmode none
attr recordingmode count
attr title "pause units received, count"
scalar Rohan_3.client5.eth[0].mac rxPausePkUnits:sum 0
attr interpolationmode none
attr recordingmode sum
attr title "pause units received, sum"
scalar Rohan_3.client5.eth[0].mac txPausePkUnits:count 0
attr interpolationmode none
attr recordingmode count
attr title "pause units sent, count"
scalar Rohan_3.client5.eth[0].mac txPausePkUnits:sum 0
attr interpolationmode none
attr recordingmode sum
attr title "pause units sent, sum"
scalar Rohan_3.client5.eth[0].mac rxPkOk:count 0
attr interpolationmode none
attr recordingmode count
attr source rxPkOk
attr title "packets received OK, count"
scalar Rohan_3.client5.eth[0].mac rxPkOk:sum(packetBytes) 0
attr interpolationmode none
attr recordingmode sum(packetBytes)
attr source rxPkOk
attr title "packets received OK, sum(packetBytes)"
par Rohan_3.client5.eth[0] typename "\"inet.linklayer.ethernet.EthernetInterface\""
par Rohan_3.client5.eth[0] displayStringTextFormat "\"%a (%i)\\n%m\""
par Rohan_3.client5.eth[0] recordPcap false
par Rohan_3.client5.eth[0] numPcapRecorders 0
par Rohan_3.client5.eth[0] interfaceTableModule "\"Rohan_3.client5.interfaceTable\""
par Rohan_3.client5.eth[0] protocol "\"ethernetmac\""
par Rohan_3.client5.eth[0] address "\"0A-AA-00-00-00-0A\""
attr mutable ""
par Rohan_3.client5.eth[0] duplexMode true
par Rohan_3.client5.eth[0] csmacdSupport false
par Rohan_3.client5.eth[0] bitrate 0bps
attr unit bps
par Rohan_3.client5.eth[0] fcsMode "\"declared\""
attr enum declared,computed
scalar Rohan_3.client5.eth[0] packetDropInterfaceDown:count 0
attr interpolationmode none
attr recordingmode count
attr source packetDropReasonIsInterfaceDown(packetDropped)
attr title "packet drops: interface down, count"
scalar Rohan_3.client5.eth[0] packetDropInterfaceDown:sum(packetBytes) 0
attr interpolationmode none
attr recordingmode sum(packetBytes)
attr source packetDropReasonIsInterfaceDown(packetDropped)
attr title "packet drops: interface down, sum(packetBytes)"
scalar Rohan_3.client5.eth[0] packetDropNoCarrier:count 0
attr interpolationmode none
attr recordingmode count
attr source packetDropReasonIsNoCarrier(packetDropped)
attr title "packet drops: no carrier, count"
scalar Rohan_3.client5.eth[0] packetDropNoCarrier:sum(packetBytes) 0
attr interpolationmode none
attr recordingmode sum(packetBytes)
attr source packetDropReasonIsNoCarrier(packetDropped)
attr title "packet drops: no carrier, sum(packetBytes)"
par Rohan_3.client5.ipv4.transportIn.channel typename "\"ned.IdealChannel\""
par Rohan_3.client5.ipv4.up.out[0].channel typename "\"ned.IdealChannel\""
par Rohan_3.client5.ipv4.lp.out[2].channel typename "\"ned.IdealChannel\""
par Rohan_3.client5.ipv4.ifIn.channel typename "\"ned.IdealChannel\""
par Rohan_3.client5.ipv4.configurator typename "\"inet.networklayer.configurator.ipv4.Ipv4NodeConfigurator\""
par Rohan_3.client5.ipv4.configurator interfaceTableModule "\"Rohan_3.client5.interfaceTable\""
par Rohan_3.client5.ipv4.configurator routingTableModule "\"Rohan_3.client5.ipv4.routingTable\""
par Rohan_3.client5.ipv4.configurator networkConfiguratorModule "\"configurator\""
par Rohan_3.client5.ipv4.configurator configureRoutingTable true
par Rohan_3.client5.ipv4.routingTable typename "\"inet.networklayer.ipv4.Ipv4RoutingTable\""
par Rohan_3.client5.ipv4.routingTable interfaceTableModule "\"Rohan_3.client5.interfaceTable\""
par Rohan_3.client5.ipv4.routingTable routerId "\"auto\""
par Rohan_3.client5.ipv4.routingTable netmaskRoutes "\"*\""
par Rohan_3.client5.ipv4.routingTable forwarding false
par Rohan_3.client5.ipv4.routingTable multicastForwarding false
par Rohan_3.client5.ipv4.routingTable useAdminDist false
par Rohan_3.client5.ipv4.routingTable routingFile "\"\""
par Rohan_3.client5.ipv4.natTable typename "\"inet.networklayer.ipv4.Ipv4NatTable\""
par Rohan_3.client5.ipv4.natTable networkProtocolModule "\"^.ip\""
par Rohan_3.client5.ipv4.natTable config "<config/> at content:1"
par Rohan_3.client5.ipv4.up typename "\"inet.common.MessageDispatcher\""
par Rohan_3.client5.ipv4.up displayStringTextFormat "\"processed %p pk (%l)\""
par Rohan_3.client5.ipv4.up forwardServiceRegistration true
par Rohan_3.client5.ipv4.up forwardProtocolRegistration true
par Rohan_3.client5.ipv4.igmp typename "\"inet.networklayer.ipv4.Igmpv2\""
par Rohan_3.client5.ipv4.igmp interfaceTableModule "\"Rohan_3.client5.interfaceTable\""
par Rohan_3.client5.ipv4.igmp routingTableModule "\"Rohan_3.client5.ipv4.routingTable\""
par Rohan_3.client5.ipv4.igmp crcMode "\"declared\""
attr enum declared,computed
par Rohan_3.client5.ipv4.igmp enabled true
par Rohan_3.client5.ipv4.igmp robustnessVariable 2
par Rohan_3.client5.ipv4.igmp queryInterval 125s
attr unit s
par Rohan_3.client5.ipv4.igmp queryResponseInterval 10s
attr unit s
par Rohan_3.client5.ipv4.igmp groupMembershipInterval 260s
attr unit s
par Rohan_3.client5.ipv4.igmp otherQuerierPresentInterval 255s
attr unit s
par Rohan_3.client5.ipv4.igmp startupQueryInterval 31.25s
attr unit s
par Rohan_3.client5.ipv4.igmp startupQueryCount 2
par Rohan_3.client5.ipv4.igmp lastMemberQueryInterval 1s
attr unit s
par Rohan_3.client5.ipv4.igmp lastMemberQueryCount 2
par Rohan_3.client5.ipv4.igmp unsolicitedReportInterval 10s
attr unit s
par Rohan_3.client5.ipv4.icmp typename "\"inet.networklayer.ipv4.Icmp\""
par Rohan_3.client5.ipv4.icmp interfaceTableModule "\"Rohan_3.client5.interfaceTable\""
par Rohan_3.client5.ipv4.icmp routingTableModule "\"Rohan_3.client5.ipv4.routingTable\""
par Rohan_3.client5.ipv4.icmp crcMode "\"declared\""
attr enum declared,computed
attr mutable ""
par Rohan_3.client5.ipv4.icmp quoteLength 8B
attr mutable ""
attr unit B
par Rohan_3.client5.ipv4.mp typename "\"inet.common.MessageDispatcher\""
par Rohan_3.client5.ipv4.mp displayStringTextFormat "\"processed %p pk (%l)\""
par Rohan_3.client5.ipv4.mp forwardServiceRegistration true
par Rohan_3.client5.ipv4.mp forwardProtocolRegistration true
par Rohan_3.client5.ipv4.ip typename "\"inet.networklayer.ipv4.Ipv4\""
par Rohan_3.client5.ipv4.ip interfaceTableModule "\"Rohan_3.client5.interfaceTable\""
par Rohan_3.client5.ipv4.ip routingTableModule "\"Rohan_3.client5.ipv4.routingTable\""
par Rohan_3.client5.ipv4.ip arpModule "\"Rohan_3.client5.ipv4.arp\""
par Rohan_3.client5.ipv4.ip icmpModule "\"Rohan_3.client5.ipv4.icmp\""
par Rohan_3.client5.ipv4.ip crcMode "\"declared\""
attr enum declared,computed
par Rohan_3.client5.ipv4.ip timeToLive 32
par Rohan_3.client5.ipv4.ip multicastTimeToLive 32
par Rohan_3.client5.ipv4.ip fragmentTimeout 60s
attr unit s
par Rohan_3.client5.ipv4.ip limitedBroadcast false
par Rohan_3.client5.ipv4.ip directBroadcastInterfaces "\"\""
scalar Rohan_3.client5.ipv4.ip packetDropAddressResolutionFailed:count 0
attr interpolationmode none
attr recordingmode count
attr source packetDropReasonIsAddressResolutionFailed(packetDropped)
attr title "packet drop: address resolution failed, count"
scalar Rohan_3.client5.ipv4.ip packetDropAddressResolutionFailed:sum(packetBytes) 0
attr interpolationmode none
attr recordingmode sum(packetBytes)
attr source packetDropReasonIsAddressResolutionFailed(packetDropped)
attr title "packet drop: address resolution failed, sum(packetBytes)"
scalar Rohan_3.client5.ipv4.ip packetDropHopLimitReached:count 0
attr interpolationmode none
attr recordingmode count
attr source packetDropReasonIsHopLimitReached(packetDropped)
attr title "packet drop: hop limit reached, count"
scalar Rohan_3.client5.ipv4.ip packetDropHopLimitReached:sum(packetBytes) 0
attr interpolationmode none
attr recordingmode sum(packetBytes)
attr source packetDropReasonIsHopLimitReached(packetDropped)
attr title "packet drop: hop limit reached, sum(packetBytes)"
scalar Rohan_3.client5.ipv4.ip packetDropForwardingDisabled:count 0
attr interpolationmode none
attr recordingmode count
attr source packetDropReasonIsForwardingDisabled(packetDropped)
attr title "packet drop: forwarding disabled, count"
scalar Rohan_3.client5.ipv4.ip packetDropForwardingDisabled:sum(packetBytes) 0
attr interpolationmode none
attr recordingmode sum(packetBytes)
attr source packetDropReasonIsForwardingDisabled(packetDropped)
attr title "packet drop: forwarding disabled, sum(packetBytes)"
scalar Rohan_3.client5.ipv4.ip packetDropNoInterfaceFound:count 0
attr interpolationmode none
attr recordingmode count
attr source packetDropReasonIsNoInterfaceFound(packetDropped)
attr title "packet drop: no interface found, count"
scalar Rohan_3.client5.ipv4.ip packetDropNoInterfaceFound:sum(packetBytes) 0
attr interpolationmode none
attr recordingmode sum(packetBytes)
attr source packetDropReasonIsNoInterfaceFound(packetDropped)
attr title "packet drop: no interface found, sum(packetBytes)"
scalar Rohan_3.client5.ipv4.ip packetDropNoRouteFound:count 0
attr interpolationmode none
attr recordingmode count
attr source packetDropReasonIsNoRouteFound(packetDropped)
attr title "packet drop: no route found, count"
scalar Rohan_3.client5.ipv4.ip packetDropNoRouteFound:sum(packetBytes) 0
attr interpolationmode none
attr recordingmode sum(packetBytes)
attr source packetDropReasonIsNoRouteFound(packetDropped)
attr title "packet drop: no route found, sum(packetBytes)"
scalar Rohan_3.client5.ipv4.ip packetDropUndefined:count 0
attr interpolationmode none
attr recordingmode count
attr source packetDropReasonIsUndefined(packetDropped)
attr title "packet drop: undefined, count"
scalar Rohan_3.client5.ipv4.ip packetDropUndefined:sum(packetBytes) 0
attr interpolationmode none
attr recordingmode sum(packetBytes)
attr source packetDropReasonIsUndefined(packetDropped)
attr title "packet drop: undefined, sum(packetBytes)"
par Rohan_3.client5.ipv4.arp typename "\"inet.networklayer.arp.ipv4.Arp\""
par Rohan_3.client5.ipv4.arp interfaceTableModule "\"Rohan_3.client5.interfaceTable\""
par Rohan_3.client5.ipv4.arp routingTableModule "\"Rohan_3.client5.ipv4.routingTable\""
par Rohan_3.client5.ipv4.arp retryTimeout 1s
attr unit s
par Rohan_3.client5.ipv4.arp retryCount 3
par Rohan_3.client5.ipv4.arp cacheTimeout 120s
attr unit s
par Rohan_3.client5.ipv4.arp proxyArpInterfaces "\"\""
scalar Rohan_3.client5.ipv4.arp arpReplySent:count 0
attr recordingmode count
attr source arpReplySent
attr title "ARP replies sent, count"
scalar Rohan_3.client5.ipv4.arp arpReplySent:sum(packetBytes) 0
attr recordingmode sum(packetBytes)
attr source arpReplySent
attr title "ARP replies sent, sum(packetBytes)"
scalar Rohan_3.client5.ipv4.arp arpRequestSent:count 0
attr recordingmode count
attr source arpRequestSent
attr title "ARP request sent, count"
scalar Rohan_3.client5.ipv4.arp arpRequestSent:sum(packetBytes) 0
attr recordingmode sum(packetBytes)
attr source arpRequestSent
attr title "ARP request sent, sum(packetBytes)"
scalar Rohan_3.client5.ipv4.arp arpResolutionFailed:count 0
attr recordingmode count
attr title "ARP failed resolutions, count"
scalar Rohan_3.client5.ipv4.arp arpResolutionCompleted:count 0
attr recordingmode count
attr title "ARP completed resolutions, count"
scalar Rohan_3.client5.ipv4.arp arpResolutionInitiated:count 0
attr recordingmode count
attr title "ARP initiated resolutions, count"
par Rohan_3.client5.ipv4.lp typename "\"inet.common.MessageDispatcher\""
par Rohan_3.client5.ipv4.lp displayStringTextFormat "\"processed %p pk (%l)\""
par Rohan_3.client5.ipv4.lp forwardServiceRegistration true
par Rohan_3.client5.ipv4.lp forwardProtocolRegistration true
par Rohan_3.client5.ipv4 typename "\"inet.networklayer.ipv4.Ipv4NetworkLayer\""
par Rohan_3.client5.ipv4 forwarding false
par Rohan_3.client5.ipv4 multicastForwarding false
par Rohan_3.client5.ipv4 interfaceTableModule "\"Rohan_3.client5.interfaceTable\""
par Rohan_3.client5.ipv4 displayStringTextFormat "\"%i\""
par Rohan_3.client5.nl typename "\"inet.common.MessageDispatcher\""
par Rohan_3.client5.nl displayStringTextFormat "\"processed %p pk (%l)\""
par Rohan_3.client5.nl forwardServiceRegistration true
par Rohan_3.client5.nl forwardProtocolRegistration true
par Rohan_3.client5.udp typename "\"inet.transportlayer.udp.Udp\""
par Rohan_3.client5.udp interfaceTableModule "\"Rohan_3.client5.interfaceTable\""
par Rohan_3.client5.udp icmpModule "\"^.ipv4.icmp\""
par Rohan_3.client5.udp icmpv6Module "\"^.ipv6.icmpv6\""
par Rohan_3.client5.udp crcMode "\"declared\""
attr enum disabled,declared,computed
par Rohan_3.client5.udp defaultMulticastLoop true
scalar Rohan_3.client5.udp packetReceived:count 0
attr interpolationmode none
attr recordingmode count
attr source packetReceived
attr title "packets received, count"
scalar Rohan_3.client5.udp packetReceived:sum(packetBytes) 0
attr interpolationmode none
attr recordingmode sum(packetBytes)
attr source packetReceived
attr title "packets received, sum(packetBytes)"
scalar Rohan_3.client5.udp packetSent:count 0
attr interpolationmode none
attr recordingmode count
attr source packetSent
attr title "packets sent, count"
scalar Rohan_3.client5.udp packetSent:sum(packetBytes) 0
attr interpolationmode none
attr recordingmode sum(packetBytes)
attr source packetSent
attr title "packets sent, sum(packetBytes)"
scalar Rohan_3.client5.udp passedUpPk:count 0
attr interpolationmode none
attr recordingmode count
attr source packetSentToUpper
attr title "packets passed up, count"
scalar Rohan_3.client5.udp droppedPkWrongPort:count 0
attr interpolationmode none
attr recordingmode count
attr source packetDropReasonIsNoPortFound(packetDropped)
attr title "packets dropped (wrong port), count"
scalar Rohan_3.client5.udp droppedPkBadChecksum:count 0
attr interpolationmode none
attr recordingmode count
attr source packetDropReasonIsIncorrectlyReceived(packetDropped)
attr title "packets dropped (checksum error), count"
par Rohan_3.client5.tcp typename "\"inet.transportlayer.tcp.Tcp\""
par Rohan_3.client5.tcp crcMode "\"declared\""
attr enum declared,computed
par Rohan_3.client5.tcp advertisedWindow 7504
par Rohan_3.client5.tcp delayedAcksEnabled false
par Rohan_3.client5.tcp nagleEnabled true
par Rohan_3.client5.tcp limitedTransmitEnabled false
par Rohan_3.client5.tcp increasedIWEnabled false
par Rohan_3.client5.tcp sackSupport false
par Rohan_3.client5.tcp windowScalingSupport false
par Rohan_3.client5.tcp windowScalingFactor -1
par Rohan_3.client5.tcp timestampSupport false
par Rohan_3.client5.tcp mss 536
par Rohan_3.client5.tcp msl 120s
attr unit s
par Rohan_3.client5.tcp tcpAlgorithmClass "\"TcpReno\""
attr enum TcpVegas,TcpWestwood,TcpNewReno,TcpReno,TcpTahoe,TcpNoCongestionControl
par Rohan_3.client5.tcp useDataNotification false
par Rohan_3.client5.tcp dupthresh 3
par Rohan_3.client5.tcp initialSsthresh 4294967295
par Rohan_3.client5.tcp stopOperationExtraTime 0s
attr unit s
par Rohan_3.client5.tcp stopOperationTimeout 2s
attr unit s
par Rohan_3.client5.tcp ecnWillingness false
par Rohan_3.client5.tcp dctcpGamma 0.0625
par Rohan_3.client5.tn typename "\"inet.common.MessageDispatcher\""
par Rohan_3.client5.tn displayStringTextFormat "\"processed %p pk (%l)\""
par Rohan_3.client5.tn forwardServiceRegistration true
par Rohan_3.client5.tn forwardProtocolRegistration true
par Rohan_3.client5.at typename "\"inet.common.MessageDispatcher\""
par Rohan_3.client5.at displayStringTextFormat "\"processed %p pk (%l)\""
par Rohan_3.client5.at forwardServiceRegistration true
par Rohan_3.client5.at forwardProtocolRegistration true
par Rohan_3.client5 typename "\"inet.node.inet.StandardHost\""
par Rohan_3.client5 hasStatus false
par Rohan_3.client5 osgModel "\"\""
par Rohan_3.client5 osgModelColor "\"\""
par Rohan_3.client5 canvasImage "\"\""
par Rohan_3.client5 canvasImageColor "\"\""
par Rohan_3.client5 recordPcap false
par Rohan_3.client5 numPcapRecorders 0
par Rohan_3.client5 numLoInterfaces 1
par Rohan_3.client5 numWlanInterfaces 0
par Rohan_3.client5 numEthInterfaces 0
par Rohan_3.client5 numPppInterfaces 0
par Rohan_3.client5 numTunInterfaces 0
par Rohan_3.client5 numVirtInterfaces 0
par Rohan_3.client5 fcsMode "\"declared\""
attr enum declared,computed
par Rohan_3.client5 hasIpv4 true
par Rohan_3.client5 hasIpv6 false
par Rohan_3.client5 hasGn false
par Rohan_3.client5 forwarding false
par Rohan_3.client5 multicastForwarding false
par Rohan_3.client5 hasUdp true
par Rohan_3.client5 hasTcp true
par Rohan_3.client5 hasSctp false
par Rohan_3.client5 numApps 0
par Rohan_3.configurator typename "\"inet.networklayer.configurator.ipv4.Ipv4NetworkConfigurator\""
par Rohan_3.configurator minLinkWeight 0.001
par Rohan_3.configurator configureIsolatedNetworksSeparatly false
par Rohan_3.configurator config "<config>...</config> at content:1"
par Rohan_3.configurator assignAddresses true
par Rohan_3.configurator assignUniqueAddresses true
par Rohan_3.configurator assignDisjunctSubnetAddresses true
par Rohan_3.configurator addStaticRoutes true
par Rohan_3.configurator addDefaultRoutes true
par Rohan_3.configurator addSubnetRoutes true
par Rohan_3.configurator addDirectRoutes true
par Rohan_3.configurator optimizeRoutes true
par Rohan_3.configurator dumpTopology false
par Rohan_3.configurator dumpLinks false
par Rohan_3.configurator dumpAddresses false
par Rohan_3.configurator dumpRoutes false
par Rohan_3.configurator dumpConfig "\"\""
par Rohan_3 typename "\"rohan_3.simulations.Rohan_3\""

